1

   Abaqus 2020                                  Date 11-Sep-2024   Time 18:51:02
   For use by TECHNISCHE UNIVERSITAET BERLIN under license from Dassault Systemes or its subsidiary.

                                                                                 
 Description-Step-1-Body-Force                                                   
 STEP    1     INCREMENT     1     STEP TIME    0.00    


                        S T E P       1     S T A T I C   A N A L Y S I S


          Description-Step-1-Body-Force                                                   

     AUTOMATIC TIME CONTROL WITH -
          A SUGGESTED INITIAL TIME INCREMENT OF                 1.00    
          AND A TOTAL TIME PERIOD OF                            1.00    
          THE MINIMUM TIME INCREMENT ALLOWED IS                1.000E-05
          THE MAXIMUM TIME INCREMENT ALLOWED IS                 1.00    

     LINEAR EQUATION SOLVER TYPE         DIRECT SPARSE

 CONVERGENCE TOLERANCE PARAMETERS FOR FORCE    
     CRITERION FOR RESIDUAL FORCE     FOR A NONLINEAR PROBLEM          5.000E-03
     CRITERION FOR DISP.    CORRECTION IN A NONLINEAR PROBLEM          1.000E-02
     INITIAL VALUE OF TIME AVERAGE FORCE                               1.000E-02
     AVERAGE FORCE     IS TIME AVERAGE FORCE    
     ALTERNATE CRIT. FOR RESIDUAL FORCE     FOR A NONLINEAR PROBLEM    2.000E-02
     CRITERION FOR ZERO FORCE     RELATIVE TO TIME AVRG. FORCE         1.000E-05
     CRITERION FOR RESIDUAL FORCE     WHEN THERE IS ZERO FLUX          1.000E-05
     CRITERION FOR DISP.    CORRECTION WHEN THERE IS ZERO FLUX         1.000E-03
     CRITERION FOR RESIDUAL FORCE     FOR A LINEAR INCREMENT           1.000E-08
     FIELD CONVERSION RATIO                                             1.00    
     CRITERION FOR ZERO FORCE     REL. TO TIME AVRG. MAX. FORCE        1.000E-05
     CRITERION FOR ZERO DISP.    RELATIVE TO CHARACTERISTIC LENGTH     1.000E-08

     VOLUMETRIC STRAIN COMPATIBILITY TOLERANCE FOR HYBRID SOLIDS       1.000E-05
     AXIAL STRAIN COMPATIBILITY TOLERANCE FOR HYBRID BEAMS             1.000E-05
     TRANS. SHEAR STRAIN COMPATIBILITY TOLERANCE FOR HYBRID BEAMS      1.000E-05
     SOFT CONTACT CONSTRAINT COMPATIBILITY TOLERANCE FOR P>P0          5.000E-03
     SOFT CONTACT CONSTRAINT COMPATIBILITY TOLERANCE FOR P=0.0         0.100    
     CONTACT FORCE ERROR TOLERANCE FOR CONVERT SDI=YES                 1.00    
     DISPLACEMENT COMPATIBILITY TOLERANCE FOR DCOUP ELEMENTS           1.000E-05
     ROTATION COMPATIBILITY TOLERANCE FOR DCOUP ELEMENTS               1.000E-05

 EQUILIBRIUM WILL BE CHECKED FOR SEVERE DISCONTINUITY ITERATIONS

 TIME INCREMENTATION CONTROL PARAMETERS:
     FIRST EQUILIBRIUM ITERATION FOR CONSECUTIVE DIVERGENCE CHECK              4
     EQUILIBRIUM ITERATION AT WHICH LOG. CONVERGENCE RATE CHECK BEGINS         8
     EQUILIBRIUM ITERATION AFTER WHICH ALTERNATE RESIDUAL IS USED              9
     MAXIMUM EQUILIBRIUM ITERATIONS ALLOWED                                   16
     EQUILIBRIUM ITERATION COUNT FOR CUT-BACK IN NEXT INCREMENT               10
     MAXIMUM EQUILIB. ITERS IN TWO INCREMENTS FOR TIME INCREMENT INCREASE      4
     MAXIMUM ITERATIONS FOR SEVERE DISCONTINUITIES                            50
     MAXIMUM ATTEMPTS ALLOWED IN AN INCREMENT                                  5
     MAXIMUM DISCON. ITERS IN TWO INCREMENTS FOR TIME INCREMENT INCREASE      50
     MAXIMUM CONTACT AUGMENTATIONS FOR *SURFACE BEHAVIOR,AUGMENTED LAGRANGE   50
     CUT-BACK FACTOR AFTER DIVERGENCE                                 0.2500    
     CUT-BACK FACTOR FOR TOO SLOW CONVERGENCE                         0.5000    
     CUT-BACK FACTOR AFTER TOO MANY EQUILIBRIUM ITERATIONS            0.7500    
     CUT-BACK FACTOR AFTER TOO MANY SEVERE DISCONTINUITY ITERATIONS   0.2500    
     CUT-BACK FACTOR AFTER PROBLEMS IN ELEMENT ASSEMBLY               0.2500    
     INCREASE FACTOR AFTER TWO INCREMENTS THAT CONVERGE QUICKLY        1.500    
     MAX. TIME INCREMENT INCREASE FACTOR ALLOWED                       1.500    
     MAX. TIME INCREMENT INCREASE FACTOR ALLOWED (DYNAMICS)            1.250    
     MAX. TIME INCREMENT INCREASE FACTOR ALLOWED (DIFFUSION)           2.000    
     MINIMUM TIME INCREMENT RATIO FOR EXTRAPOLATION TO OCCUR          0.1000    
     MAX. RATIO OF TIME INCREMENT TO STABILITY LIMIT                   1.000    
     FRACTION OF STABILITY LIMIT FOR NEW TIME INCREMENT               0.9500    
     TIME INCREMENT INCREASE FACTOR BEFORE A TIME POINT                1.000    

 CONTACT CONTROLS APPLIED TO ALL CONTACT PAIRS:
     GLOBAL STABILIZATION CONTROL IS NOT USED
     RELATIVE PENETRATION TOLERANCE FOR AUGMENTED LAGRANGE CONTACT:
          FINITE-SLIDING SURFACE-TO-SURFACE                            5.000E-02
          OTHERWISE                                                    1.000E-03

          PRINT OF INCREMENT NUMBER, TIME, ETC., EVERY    1  INCREMENTS

     THE MAXIMUM NUMBER OF INCREMENTS IN THIS STEP IS                     100

          UNSYMMETRIC MATRIX STORAGE AND SOLUTION WILL BE USED

     LINEAR EXTRAPOLATION WILL BE USED

     CHARACTERISTIC ELEMENT LENGTH     1.605E-04

     DETAILS REGARDING ACTUAL SOLUTION WAVEFRONT REQUESTED

     DETAILED OUTPUT OF DIAGNOSTICS TO DATABASE REQUESTED

     PRINT OF INCREMENT NUMBER, TIME, ETC., TO THE MESSAGE FILE EVERY     1  INCREMENTS

     ELEMENT OPERATIONS WILL BE CARRIED OUT IN PARALLEL USING   4 PROCESSORS

     PARALLEL CONTACT TRACKING ENABLED


     COLLECTING MODEL CONSTRAINT INFORMATION FOR OVERCONSTRAINT CHECKS

     COLLECTING STEP CONSTRAINT INFORMATION FOR OVERCONSTRAINT CHECKS


  INCREMENT     1 STARTS. ATTEMPT NUMBER  1, TIME INCREMENT   1.00    
  
     ASYNCHRONOUS TRACKING ELEMENT LOOP STARTED
  
 
     INITIAL ELEMENT LOAD BALANCE
            PROCESS    1   THREAD     NUMBER OF ELEMENTS
                              1            344
                              2            256
                              3            479
                              4            256

  NUMBER OF EQUATIONS =      2148     NUMBER OF RHS =    1
  NUMBER OF FLOATING PT. OPERATIONS =  1.17E+07

  USING THE DIRECT SOLVER WITH   4 PROCESSORS

     CHECK POINT   START OF SOLVER    

     CHECK POINT  END OF SOLVER       

       ELAPSED USER TIME (SEC)      =   0.0000    
       ELAPSED SYSTEM TIME (SEC)    =   0.0000    
       ELAPSED TOTAL CPU TIME (SEC) =   0.0000    
       ELAPSED WALLCLOCK TIME (SEC) =          0
  
     ASYNCHRONOUS TRACKING ELEMENT LOOP STARTED
  

                   42 SEVERE DISCONTINUITIES OCCURRED DURING THIS ITERATION.
                   42 POINTS CHANGED FROM CLOSED TO OPEN

               CONVERGENCE CHECKS FOR SEVERE DISCONTINUITY ITERATION     1

   MAX. PENETRATION ERROR 44.6331E-12  AT NODE ASSEMBLYINSTANCEINS4.42 OF 
   CONTACT PAIR (ASSEMBLY_M_SURF-SLAVE,ASSEMBLY_M_SURF-MASTER)
   MAX. CONTACT FORCE ERROR 798.212       AT NODE ASSEMBLYINSTANCEINS3.38 OF 
   CONTACT PAIR (ASSEMBLY_M_SURF-SLAVE,ASSEMBLY_M_SURF-MASTER)
          THE ESTIMATED CONTACT FORCE ERROR IS OUTSIDE OF CONVERGENCE TOLERANCES.

 AVERAGE FORCE                       37.0       TIME AVG. FORCE        37.0    
 LARGEST RESIDUAL FORCE            -1.291E+03   AT NODE          5   DOF  2
   INSTANCE: ASSEMBLYINSTANCECON4                                                            
 LARGEST INCREMENT OF DISP.         2.621E-04   AT NODE          1   DOF  1
   INSTANCE: ASSEMBLYINSTANCE-CON1                                                           
 LARGEST CORRECTION TO DISP.        2.621E-04   AT NODE          1   DOF  1
   INSTANCE: ASSEMBLYINSTANCE-CON1                                                           
          FORCE     EQUILIBRIUM NOT ACHIEVED WITHIN TOLERANCE.

  NUMBER OF EQUATIONS =      2148     NUMBER OF RHS =    1
  NUMBER OF FLOATING PT. OPERATIONS =  1.16E+07

  USING THE DIRECT SOLVER WITH   4 PROCESSORS

     CHECK POINT   START OF SOLVER    

     CHECK POINT  END OF SOLVER       

       ELAPSED USER TIME (SEC)      =   0.0000    
       ELAPSED SYSTEM TIME (SEC)    =   0.0000    
       ELAPSED TOTAL CPU TIME (SEC) =   0.0000    
       ELAPSED WALLCLOCK TIME (SEC) =          0
  
     ASYNCHRONOUS TRACKING ELEMENT LOOP STARTED
  

                   32 SEVERE DISCONTINUITIES OCCURRED DURING THIS ITERATION.
                   29 POINTS CHANGED FROM OPEN TO CLOSED
                    3 POINTS CHANGED FROM CLOSED TO OPEN

               CONVERGENCE CHECKS FOR SEVERE DISCONTINUITY ITERATION     2

   MAX. PENETRATION ERROR 53.0767E-09  AT NODE ASSEMBLYINSTANCEINS4.39 OF 
   CONTACT PAIR (ASSEMBLY_M_SURF-SLAVE,ASSEMBLY_M_SURF-MASTER)
   MAX. CONTACT FORCE ERROR 1.27458E+06 AT NODE ASSEMBLYINSTANCEINS4.39 OF 
   CONTACT PAIR (ASSEMBLY_M_SURF-SLAVE,ASSEMBLY_M_SURF-MASTER)
          THE ESTIMATED CONTACT FORCE ERROR IS OUTSIDE OF CONVERGENCE TOLERANCES.

 AVERAGE FORCE                       14.0       TIME AVG. FORCE        14.0    
 LARGEST RESIDUAL FORCE              22.4       AT NODE         81   DOF  2
   INSTANCE: ASSEMBLYINSTANCECON5                                                            
 LARGEST INCREMENT OF DISP.         2.620E-04   AT NODE          5   DOF  1
   INSTANCE: ASSEMBLYINSTANCE-CON1                                                           
 LARGEST CORRECTION TO DISP.        5.923E-07   AT NODE         42   DOF  1
   INSTANCE: ASSEMBLYINSTANCEINS4                                                            
          FORCE     EQUILIBRIUM NOT ACHIEVED WITHIN TOLERANCE.

  NUMBER OF EQUATIONS =      2148     NUMBER OF RHS =    1
  NUMBER OF FLOATING PT. OPERATIONS =  1.17E+07

  USING THE DIRECT SOLVER WITH   4 PROCESSORS

     CHECK POINT   START OF SOLVER    

     CHECK POINT  END OF SOLVER       

       ELAPSED USER TIME (SEC)      =   0.0000    
       ELAPSED SYSTEM TIME (SEC)    =   0.0000    
       ELAPSED TOTAL CPU TIME (SEC) =   0.0000    
       ELAPSED WALLCLOCK TIME (SEC) =          0
  
     ASYNCHRONOUS TRACKING ELEMENT LOOP STARTED
  

                   23 SEVERE DISCONTINUITIES OCCURRED DURING THIS ITERATION.
                   16 POINTS CHANGED FROM OPEN TO CLOSED
                    7 POINTS CHANGED FROM CLOSED TO OPEN

               CONVERGENCE CHECKS FOR SEVERE DISCONTINUITY ITERATION     3

   MAX. PENETRATION ERROR 2.26459E-09 AT NODE ASSEMBLYINSTANCEINS5.37 OF 
   CONTACT PAIR (ASSEMBLY_M_SURF-SLAVE,ASSEMBLY_M_SURF-MASTER)
   MAX. CONTACT FORCE ERROR 54.4259E+03  AT NODE ASSEMBLYINSTANCEINS5.37 OF 
   CONTACT PAIR (ASSEMBLY_M_SURF-SLAVE,ASSEMBLY_M_SURF-MASTER)
          THE ESTIMATED CONTACT FORCE ERROR IS OUTSIDE OF CONVERGENCE TOLERANCES.

 AVERAGE FORCE                       13.5       TIME AVG. FORCE        13.5    
 LARGEST RESIDUAL FORCE             -2.27       AT NODE         34   DOF  1
   INSTANCE: ASSEMBLYINSTANCEINS4                                                            
 LARGEST INCREMENT OF DISP.         2.620E-04   AT NODE          1   DOF  1
   INSTANCE: ASSEMBLYINSTANCE-CON1                                                           
 LARGEST CORRECTION TO DISP.        7.951E-08   AT NODE         39   DOF  1
   INSTANCE: ASSEMBLYINSTANCEINS4                                                            
          FORCE     EQUILIBRIUM NOT ACHIEVED WITHIN TOLERANCE.

  NUMBER OF EQUATIONS =      2148     NUMBER OF RHS =    1
  NUMBER OF FLOATING PT. OPERATIONS =  1.16E+07

  USING THE DIRECT SOLVER WITH   4 PROCESSORS

     CHECK POINT   START OF SOLVER    

     CHECK POINT  END OF SOLVER       

       ELAPSED USER TIME (SEC)      =   0.0000    
       ELAPSED SYSTEM TIME (SEC)    =   0.0000    
       ELAPSED TOTAL CPU TIME (SEC) =   0.0000    
       ELAPSED WALLCLOCK TIME (SEC) =          0
  
     ASYNCHRONOUS TRACKING ELEMENT LOOP STARTED
  

                    8 SEVERE DISCONTINUITIES OCCURRED DURING THIS ITERATION.
                    7 POINTS CHANGED FROM OPEN TO CLOSED
                    1 POINTS CHANGED FROM CLOSED TO OPEN

               CONVERGENCE CHECKS FOR SEVERE DISCONTINUITY ITERATION     4

   MAX. PENETRATION ERROR 1.39097E-09 AT NODE ASSEMBLYINSTANCEINS2.80 OF 
   CONTACT PAIR (ASSEMBLY_M_SURF-SLAVE,ASSEMBLY_M_SURF-MASTER)
   MAX. CONTACT FORCE ERROR 33.3471E+03  AT NODE ASSEMBLYINSTANCEINS2.80 OF 
   CONTACT PAIR (ASSEMBLY_M_SURF-SLAVE,ASSEMBLY_M_SURF-MASTER)
          THE ESTIMATED CONTACT FORCE ERROR IS OUTSIDE OF CONVERGENCE TOLERANCES.

 AVERAGE FORCE                       12.8       TIME AVG. FORCE        12.8    
 LARGEST RESIDUAL FORCE             0.823       AT NODE         73   DOF  1
   INSTANCE: ASSEMBLYINSTANCECON5                                                            
 LARGEST INCREMENT OF DISP.         2.620E-04   AT NODE          1   DOF  1
   INSTANCE: ASSEMBLYINSTANCE-CON1                                                           
 LARGEST CORRECTION TO DISP.        4.266E-09   AT NODE         37   DOF  1
   INSTANCE: ASSEMBLYINSTANCEINS5                                                            
          FORCE     EQUILIBRIUM NOT ACHIEVED WITHIN TOLERANCE.

  NUMBER OF EQUATIONS =      2148     NUMBER OF RHS =    1
  NUMBER OF FLOATING PT. OPERATIONS =  1.17E+07

  USING THE DIRECT SOLVER WITH   4 PROCESSORS

     CHECK POINT   START OF SOLVER    

     CHECK POINT  END OF SOLVER       

       ELAPSED USER TIME (SEC)      =   0.0000    
       ELAPSED SYSTEM TIME (SEC)    =   0.0000    
       ELAPSED TOTAL CPU TIME (SEC) =   0.0000    
       ELAPSED WALLCLOCK TIME (SEC) =          0
  
     ASYNCHRONOUS TRACKING ELEMENT LOOP STARTED
  

                    1 SEVERE DISCONTINUITIES OCCURRED DURING THIS ITERATION.
                    1 POINTS CHANGED FROM OPEN TO CLOSED

               CONVERGENCE CHECKS FOR SEVERE DISCONTINUITY ITERATION     5

   MAX. PENETRATION ERROR 574.808E-12   AT NODE ASSEMBLYINSTANCEINS4.38 OF 
   CONTACT PAIR (ASSEMBLY_M_SURF-SLAVE,ASSEMBLY_M_SURF-MASTER)
   MAX. CONTACT FORCE ERROR 13.8035E+03  AT NODE ASSEMBLYINSTANCEINS4.38 OF 
   CONTACT PAIR (ASSEMBLY_M_SURF-SLAVE,ASSEMBLY_M_SURF-MASTER)
          THE ESTIMATED CONTACT FORCE ERROR IS OUTSIDE OF CONVERGENCE TOLERANCES.

 AVERAGE FORCE                       12.4       TIME AVG. FORCE        12.4    
 LARGEST RESIDUAL FORCE            -3.588E-02   AT NODE         72   DOF  2
   INSTANCE: ASSEMBLYINSTANCECOW2                                                            
 LARGEST INCREMENT OF DISP.         2.620E-04   AT NODE          1   DOF  1
   INSTANCE: ASSEMBLYINSTANCE-CON1                                                           
 LARGEST CORRECTION TO DISP.       -1.511E-09   AT NODE         80   DOF  1
   INSTANCE: ASSEMBLYINSTANCEINS2                                                            
          THE FORCE     EQUILIBRIUM EQUATIONS HAVE CONVERGED

  NUMBER OF EQUATIONS =      2148     NUMBER OF RHS =    1
  NUMBER OF FLOATING PT. OPERATIONS =  1.17E+07

  USING THE DIRECT SOLVER WITH   4 PROCESSORS

     CHECK POINT   START OF SOLVER    

     CHECK POINT  END OF SOLVER       

       ELAPSED USER TIME (SEC)      =   0.0000    
       ELAPSED SYSTEM TIME (SEC)    =   0.0000    
       ELAPSED TOTAL CPU TIME (SEC) =   0.0000    
       ELAPSED WALLCLOCK TIME (SEC) =          0
  
     ASYNCHRONOUS TRACKING ELEMENT LOOP STARTED
  

               CONVERGENCE CHECKS FOR EQUILIBRIUM ITERATION     1

   MAX. PENETRATION ERROR 417.073E-18   AT NODE ASSEMBLYINSTANCECON5.84 OF 
   CONTACT PAIR (ASSEMBLY_M_SURF-SLAVE,ASSEMBLY_M_SURF-MASTER)
   MAX. CONTACT FORCE ERROR 3.26077E-03 AT NODE ASSEMBLYINSTANCEINS4.40 OF 
   CONTACT PAIR (ASSEMBLY_M_SURF-SLAVE,ASSEMBLY_M_SURF-MASTER)
          THE CONTACT CONSTRAINTS HAVE CONVERGED.

 AVERAGE FORCE                       12.3       TIME AVG. FORCE        12.3    
 LARGEST RESIDUAL FORCE             1.352E-02   AT NODE         64   DOF  2
   INSTANCE: ASSEMBLYINSTANCECOW4                                                            
 LARGEST INCREMENT OF DISP.         2.620E-04   AT NODE          1   DOF  1
   INSTANCE: ASSEMBLYINSTANCE-CON1                                                           
 LARGEST CORRECTION TO DISP.        5.287E-10   AT NODE         73   DOF  1
   INSTANCE: ASSEMBLYINSTANCECON5                                                            
          THE FORCE     EQUILIBRIUM EQUATIONS HAVE CONVERGED

 ITERATION SUMMARY FOR THE INCREMENT:   6 TOTAL ITERATIONS, OF WHICH
   5 ARE SEVERE DISCONTINUITY ITERATIONS AND  1 ARE EQUILIBRIUM ITERATIONS.

 TIME INCREMENT COMPLETED   1.00    ,  FRACTION OF STEP COMPLETED   1.00    
 STEP TIME COMPLETED        1.00    ,  TOTAL TIME COMPLETED         1.00    


          THE ANALYSIS HAS BEEN COMPLETED



     ANALYSIS SUMMARY:
     TOTAL OF          1  INCREMENTS
                       0  CUTBACKS IN AUTOMATIC INCREMENTATION
                       6  ITERATIONS INCLUDING CONTACT ITERATIONS IF PRESENT
                       6  PASSES THROUGH THE EQUATION SOLVER OF WHICH 
                       6  INVOLVE MATRIX DECOMPOSITION, INCLUDING
                       0  DECOMPOSITION(S) OF THE MASS MATRIX
                       1  REORDERING OF EQUATIONS TO MINIMIZE WAVEFRONT
                       0  ADDITIONAL RESIDUAL EVALUATIONS FOR LINE SEARCHES
                       0  ADDITIONAL OPERATOR EVALUATIONS FOR LINE SEARCHES
                       1  WARNING MESSAGES DURING USER INPUT PROCESSING
                       0  WARNING MESSAGES DURING ANALYSIS
                       0  ANALYSIS WARNINGS ARE NUMERICAL PROBLEM MESSAGES
                       0  ANALYSIS WARNINGS ARE NEGATIVE EIGENVALUE MESSAGES
                       0  ERROR MESSAGES



     JOB TIME SUMMARY
       USER TIME (SEC)      =  0.30000    
       SYSTEM TIME (SEC)    =  0.10000    
       TOTAL CPU TIME (SEC) =  0.40000    
       WALLCLOCK TIME (SEC) =          1
