1

   Abaqus 2020                                  Date 21-Sep-2024   Time 23:46:05
   For use by TECHNISCHE UNIVERSITAET BERLIN under license from Dassault Systemes or its subsidiary.

                                                                                 
 Description-Step-1-Body-Force                                                   
 STEP    1     INCREMENT     1     STEP TIME    0.00    


                        S T E P       1     S T A T I C   A N A L Y S I S


          Description-Step-1-Body-Force                                                   

     AUTOMATIC TIME CONTROL WITH -
          A SUGGESTED INITIAL TIME INCREMENT OF                5.000E-02
          AND A TOTAL TIME PERIOD OF                            1.00    
          THE MINIMUM TIME INCREMENT ALLOWED IS                1.000E-05
          THE MAXIMUM TIME INCREMENT ALLOWED IS                 1.00    

     LINEAR EQUATION SOLVER TYPE         DIRECT SPARSE

 CONVERGENCE TOLERANCE PARAMETERS FOR FORCE    
     CRITERION FOR RESIDUAL FORCE     FOR A NONLINEAR PROBLEM          5.000E-03
     CRITERION FOR DISP.    CORRECTION IN A NONLINEAR PROBLEM          1.000E-02
     INITIAL VALUE OF TIME AVERAGE FORCE                               1.000E-02
     AVERAGE FORCE     IS TIME AVERAGE FORCE    
     ALTERNATE CRIT. FOR RESIDUAL FORCE     FOR A NONLINEAR PROBLEM    2.000E-02
     CRITERION FOR ZERO FORCE     RELATIVE TO TIME AVRG. FORCE         1.000E-05
     CRITERION FOR RESIDUAL FORCE     WHEN THERE IS ZERO FLUX          1.000E-05
     CRITERION FOR DISP.    CORRECTION WHEN THERE IS ZERO FLUX         1.000E-03
     CRITERION FOR RESIDUAL FORCE     FOR A LINEAR INCREMENT           1.000E-08
     FIELD CONVERSION RATIO                                             1.00    
     CRITERION FOR ZERO FORCE     REL. TO TIME AVRG. MAX. FORCE        1.000E-05
     CRITERION FOR ZERO DISP.    RELATIVE TO CHARACTERISTIC LENGTH     1.000E-08

     VOLUMETRIC STRAIN COMPATIBILITY TOLERANCE FOR HYBRID SOLIDS       1.000E-05
     AXIAL STRAIN COMPATIBILITY TOLERANCE FOR HYBRID BEAMS             1.000E-05
     TRANS. SHEAR STRAIN COMPATIBILITY TOLERANCE FOR HYBRID BEAMS      1.000E-05
     SOFT CONTACT CONSTRAINT COMPATIBILITY TOLERANCE FOR P>P0          5.000E-03
     SOFT CONTACT CONSTRAINT COMPATIBILITY TOLERANCE FOR P=0.0         0.100    
     CONTACT FORCE ERROR TOLERANCE FOR CONVERT SDI=YES                 1.00    
     DISPLACEMENT COMPATIBILITY TOLERANCE FOR DCOUP ELEMENTS           1.000E-05
     ROTATION COMPATIBILITY TOLERANCE FOR DCOUP ELEMENTS               1.000E-05

 EQUILIBRIUM WILL BE CHECKED FOR SEVERE DISCONTINUITY ITERATIONS

 TIME INCREMENTATION CONTROL PARAMETERS:
     FIRST EQUILIBRIUM ITERATION FOR CONSECUTIVE DIVERGENCE CHECK              4
     EQUILIBRIUM ITERATION AT WHICH LOG. CONVERGENCE RATE CHECK BEGINS         8
     EQUILIBRIUM ITERATION AFTER WHICH ALTERNATE RESIDUAL IS USED              9
     MAXIMUM EQUILIBRIUM ITERATIONS ALLOWED                                   16
     EQUILIBRIUM ITERATION COUNT FOR CUT-BACK IN NEXT INCREMENT               10
     MAXIMUM EQUILIB. ITERS IN TWO INCREMENTS FOR TIME INCREMENT INCREASE      4
     MAXIMUM ITERATIONS FOR SEVERE DISCONTINUITIES                            50
     MAXIMUM ATTEMPTS ALLOWED IN AN INCREMENT                                  5
     MAXIMUM DISCON. ITERS IN TWO INCREMENTS FOR TIME INCREMENT INCREASE      50
     MAXIMUM CONTACT AUGMENTATIONS FOR *SURFACE BEHAVIOR,AUGMENTED LAGRANGE   50
     CUT-BACK FACTOR AFTER DIVERGENCE                                 0.2500    
     CUT-BACK FACTOR FOR TOO SLOW CONVERGENCE                         0.5000    
     CUT-BACK FACTOR AFTER TOO MANY EQUILIBRIUM ITERATIONS            0.7500    
     CUT-BACK FACTOR AFTER TOO MANY SEVERE DISCONTINUITY ITERATIONS   0.2500    
     CUT-BACK FACTOR AFTER PROBLEMS IN ELEMENT ASSEMBLY               0.2500    
     INCREASE FACTOR AFTER TWO INCREMENTS THAT CONVERGE QUICKLY        1.500    
     MAX. TIME INCREMENT INCREASE FACTOR ALLOWED                       1.500    
     MAX. TIME INCREMENT INCREASE FACTOR ALLOWED (DYNAMICS)            1.250    
     MAX. TIME INCREMENT INCREASE FACTOR ALLOWED (DIFFUSION)           2.000    
     MINIMUM TIME INCREMENT RATIO FOR EXTRAPOLATION TO OCCUR          0.1000    
     MAX. RATIO OF TIME INCREMENT TO STABILITY LIMIT                   1.000    
     FRACTION OF STABILITY LIMIT FOR NEW TIME INCREMENT               0.9500    
     TIME INCREMENT INCREASE FACTOR BEFORE A TIME POINT                1.000    

 CONTACT CONTROLS APPLIED TO ALL CONTACT PAIRS:
     GLOBAL STABILIZATION CONTROL IS NOT USED
     RELATIVE PENETRATION TOLERANCE FOR AUGMENTED LAGRANGE CONTACT:
          FINITE-SLIDING SURFACE-TO-SURFACE                            5.000E-02
          OTHERWISE                                                    1.000E-03

          PRINT OF INCREMENT NUMBER, TIME, ETC., EVERY    1  INCREMENTS

     THE MAXIMUM NUMBER OF INCREMENTS IN THIS STEP IS                     100

     LINEAR EXTRAPOLATION WILL BE USED

     CHARACTERISTIC ELEMENT LENGTH     5.599E-06

     DETAILS REGARDING ACTUAL SOLUTION WAVEFRONT REQUESTED

     DETAILED OUTPUT OF DIAGNOSTICS TO DATABASE REQUESTED

     PRINT OF INCREMENT NUMBER, TIME, ETC., TO THE MESSAGE FILE EVERY     1  INCREMENTS

     ELEMENT OPERATIONS WILL BE CARRIED OUT IN PARALLEL USING   4 PROCESSORS

     PARALLEL CONTACT TRACKING ENABLED


     COLLECTING MODEL CONSTRAINT INFORMATION FOR OVERCONSTRAINT CHECKS

     COLLECTING STEP CONSTRAINT INFORMATION FOR OVERCONSTRAINT CHECKS


  INCREMENT     1 STARTS. ATTEMPT NUMBER  1, TIME INCREMENT  5.000E-02
  
     ASYNCHRONOUS TRACKING ELEMENT LOOP STARTED
  
 
     INITIAL ELEMENT LOAD BALANCE
            PROCESS    1   THREAD     NUMBER OF ELEMENTS
                              1            14592
                              2            14788
                              3            13965
                              4            14080

  NUMBER OF EQUATIONS =     72976     NUMBER OF RHS =    1
  NUMBER OF FLOATING PT. OPERATIONS =  1.58E+08

  USING THE DIRECT SOLVER WITH   4 PROCESSORS

     CHECK POINT   START OF SOLVER    

     CHECK POINT  END OF SOLVER       

       ELAPSED USER TIME (SEC)      =  0.20000    
       ELAPSED SYSTEM TIME (SEC)    =  0.10000    
       ELAPSED TOTAL CPU TIME (SEC) =  0.30000    
       ELAPSED WALLCLOCK TIME (SEC) =          1
  
     ASYNCHRONOUS TRACKING ELEMENT LOOP STARTED
  

               CONVERGENCE CHECKS FOR EQUILIBRIUM ITERATION     1

   MAX. PENETRATION ERROR 2.11446E-15 AT NODE ASSEMBLYINSTANCE-INS1.8001 OF 
   CONTACT PAIR (ASSEMBLY_M_SURF-SLAVE,ASSEMBLY_M_SURF-MASTER)
   MAX. CONTACT FORCE ERROR 3.01945E-03 AT NODE ASSEMBLYINSTANCE-INS5.1059 OF 
   CONTACT PAIR (ASSEMBLY_M_SURF-SLAVE,ASSEMBLY_M_SURF-MASTER)
          THE CONTACT CONSTRAINTS HAVE CONVERGED.

 AVERAGE FORCE                      9.529E-02   TIME AVG. FORCE       9.529E-02
 LARGEST RESIDUAL FORCE             1.700E-03   AT NODE        235   DOF  1
   INSTANCE: ASSEMBLYINSTANCE-COW2                                                           
 LARGEST INCREMENT OF DISP.         2.373E-05   AT NODE          1   DOF  1
   INSTANCE: ASSEMBLYINSTANCE-CON1                                                           
 LARGEST CORRECTION TO DISP.        2.373E-05   AT NODE          1   DOF  1
   INSTANCE: ASSEMBLYINSTANCE-CON1                                                           
          FORCE     EQUILIBRIUM NOT ACHIEVED WITHIN TOLERANCE.

  NUMBER OF EQUATIONS =     72976     NUMBER OF RHS =    1
  NUMBER OF FLOATING PT. OPERATIONS =  1.58E+08

  USING THE DIRECT SOLVER WITH   4 PROCESSORS

     CHECK POINT   START OF SOLVER    

     CHECK POINT  END OF SOLVER       

       ELAPSED USER TIME (SEC)      =  0.10000    
       ELAPSED SYSTEM TIME (SEC)    =  0.10000    
       ELAPSED TOTAL CPU TIME (SEC) =  0.20000    
       ELAPSED WALLCLOCK TIME (SEC) =          1
  
     ASYNCHRONOUS TRACKING ELEMENT LOOP STARTED
  

               CONVERGENCE CHECKS FOR EQUILIBRIUM ITERATION     2

   MAX. PENETRATION ERROR -112.758E-18   AT NODE ASSEMBLYINSTANCE-INS2.7225 OF 
   CONTACT PAIR (ASSEMBLY_M_SURF-SLAVE,ASSEMBLY_M_SURF-MASTER)
   MAX. CONTACT FORCE ERROR -136.143E-06   AT NODE ASSEMBLYINSTANCE-INS5.347 OF 
   CONTACT PAIR (ASSEMBLY_M_SURF-SLAVE,ASSEMBLY_M_SURF-MASTER)
          THE CONTACT CONSTRAINTS HAVE CONVERGED.

 AVERAGE FORCE                      9.530E-02   TIME AVG. FORCE       9.530E-02
 LARGEST RESIDUAL FORCE            -2.224E-07   AT NODE        230   DOF  1
   INSTANCE: ASSEMBLYINSTANCE-COW2                                                           
 LARGEST INCREMENT OF DISP.         2.373E-05   AT NODE          1   DOF  1
   INSTANCE: ASSEMBLYINSTANCE-CON1                                                           
 LARGEST CORRECTION TO DISP.        1.573E-12   AT NODE          3   DOF  1
   INSTANCE: ASSEMBLYINSTANCE-COW1                                                           
          THE FORCE     EQUILIBRIUM EQUATIONS HAVE CONVERGED

 ITERATION SUMMARY FOR THE INCREMENT:   2 TOTAL ITERATIONS, OF WHICH
   0 ARE SEVERE DISCONTINUITY ITERATIONS AND  2 ARE EQUILIBRIUM ITERATIONS.

 TIME INCREMENT COMPLETED  5.000E-02,  FRACTION OF STEP COMPLETED  5.000E-02
 STEP TIME COMPLETED       5.000E-02,  TOTAL TIME COMPLETED        5.000E-02


  INCREMENT     2 STARTS. ATTEMPT NUMBER  1, TIME INCREMENT  5.000E-02
  
     ASYNCHRONOUS TRACKING ELEMENT LOOP STARTED
  

  NUMBER OF EQUATIONS =     72976     NUMBER OF RHS =    1
  NUMBER OF FLOATING PT. OPERATIONS =  1.58E+08

  USING THE DIRECT SOLVER WITH   4 PROCESSORS

     CHECK POINT   START OF SOLVER    

     CHECK POINT  END OF SOLVER       

       ELAPSED USER TIME (SEC)      =  0.20000    
       ELAPSED SYSTEM TIME (SEC)    =   0.0000    
       ELAPSED TOTAL CPU TIME (SEC) =  0.20000    
       ELAPSED WALLCLOCK TIME (SEC) =          1
  
     ASYNCHRONOUS TRACKING ELEMENT LOOP STARTED
  

               CONVERGENCE CHECKS FOR EQUILIBRIUM ITERATION     1

   MAX. PENETRATION ERROR -106.805E-18   AT NODE ASSEMBLYINSTANCE-INS3.681 OF 
   CONTACT PAIR (ASSEMBLY_M_SURF-SLAVE,ASSEMBLY_M_SURF-MASTER)
   MAX. CONTACT FORCE ERROR 143.296E-06   AT NODE ASSEMBLYINSTANCE-INS5.587 OF 
   CONTACT PAIR (ASSEMBLY_M_SURF-SLAVE,ASSEMBLY_M_SURF-MASTER)
          THE CONTACT CONSTRAINTS HAVE CONVERGED.

 AVERAGE FORCE                      0.305       TIME AVG. FORCE       0.200    
 LARGEST RESIDUAL FORCE            -1.066E-07   AT NODE        445   DOF  1
   INSTANCE: ASSEMBLYINSTANCE-CON3                                                           
 LARGEST INCREMENT OF DISP.         2.373E-05   AT NODE          1   DOF  1
   INSTANCE: ASSEMBLYINSTANCE-CON1                                                           
 LARGEST CORRECTION TO DISP.       -4.013E-12   AT NODE        231   DOF  1
   INSTANCE: ASSEMBLYINSTANCE-COW1                                                           
          THE FORCE     EQUILIBRIUM EQUATIONS HAVE CONVERGED
          TIME INCREMENT MAY NOW INCREASE TO    7.500E-02

 ITERATION SUMMARY FOR THE INCREMENT:   1 TOTAL ITERATIONS, OF WHICH
   0 ARE SEVERE DISCONTINUITY ITERATIONS AND  1 ARE EQUILIBRIUM ITERATIONS.

 TIME INCREMENT COMPLETED  5.000E-02,  FRACTION OF STEP COMPLETED  0.100    
 STEP TIME COMPLETED       0.100    ,  TOTAL TIME COMPLETED        0.100    


  INCREMENT     3 STARTS. ATTEMPT NUMBER  1, TIME INCREMENT  7.500E-02
  
     ASYNCHRONOUS TRACKING ELEMENT LOOP STARTED
  

  NUMBER OF EQUATIONS =     72976     NUMBER OF RHS =    1
  NUMBER OF FLOATING PT. OPERATIONS =  1.58E+08

  USING THE DIRECT SOLVER WITH   4 PROCESSORS

     CHECK POINT   START OF SOLVER    

     CHECK POINT  END OF SOLVER       

       ELAPSED USER TIME (SEC)      =   0.0000    
       ELAPSED SYSTEM TIME (SEC)    =   0.0000    
       ELAPSED TOTAL CPU TIME (SEC) =   0.0000    
       ELAPSED WALLCLOCK TIME (SEC) =          1
  
     ASYNCHRONOUS TRACKING ELEMENT LOOP STARTED
  

               CONVERGENCE CHECKS FOR EQUILIBRIUM ITERATION     1

   MAX. PENETRATION ERROR 107.218E-18   AT NODE ASSEMBLYINSTANCE-INS2.3100 OF 
   CONTACT PAIR (ASSEMBLY_M_SURF-SLAVE,ASSEMBLY_M_SURF-MASTER)
   MAX. CONTACT FORCE ERROR -155.060E-06   AT NODE ASSEMBLYINSTANCE-INS5.881 OF 
   CONTACT PAIR (ASSEMBLY_M_SURF-SLAVE,ASSEMBLY_M_SURF-MASTER)
          THE CONTACT CONSTRAINTS HAVE CONVERGED.

 AVERAGE FORCE                      0.528       TIME AVG. FORCE       0.309    
 LARGEST RESIDUAL FORCE            -3.366E-07   AT NODE        445   DOF  1
   INSTANCE: ASSEMBLYINSTANCE-CON3                                                           
 LARGEST INCREMENT OF DISP.         3.559E-05   AT NODE          1   DOF  1
   INSTANCE: ASSEMBLYINSTANCE-CON1                                                           
 LARGEST CORRECTION TO DISP.       -7.519E-12   AT NODE        231   DOF  1
   INSTANCE: ASSEMBLYINSTANCE-COW1                                                           
          THE FORCE     EQUILIBRIUM EQUATIONS HAVE CONVERGED
          TIME INCREMENT MAY NOW INCREASE TO    0.113    

 ITERATION SUMMARY FOR THE INCREMENT:   1 TOTAL ITERATIONS, OF WHICH
   0 ARE SEVERE DISCONTINUITY ITERATIONS AND  1 ARE EQUILIBRIUM ITERATIONS.

 TIME INCREMENT COMPLETED  7.500E-02,  FRACTION OF STEP COMPLETED  0.175    
 STEP TIME COMPLETED       0.175    ,  TOTAL TIME COMPLETED        0.175    


  INCREMENT     4 STARTS. ATTEMPT NUMBER  1, TIME INCREMENT  0.113    
  
     ASYNCHRONOUS TRACKING ELEMENT LOOP STARTED
  

  NUMBER OF EQUATIONS =     72976     NUMBER OF RHS =    1
  NUMBER OF FLOATING PT. OPERATIONS =  1.58E+08

  USING THE DIRECT SOLVER WITH   4 PROCESSORS

     CHECK POINT   START OF SOLVER    

     CHECK POINT  END OF SOLVER       

       ELAPSED USER TIME (SEC)      =  0.10000    
       ELAPSED SYSTEM TIME (SEC)    =   0.0000    
       ELAPSED TOTAL CPU TIME (SEC) =  0.10000    
       ELAPSED WALLCLOCK TIME (SEC) =          1
  
     ASYNCHRONOUS TRACKING ELEMENT LOOP STARTED
  

               CONVERGENCE CHECKS FOR EQUILIBRIUM ITERATION     1

   MAX. PENETRATION ERROR 104.783E-18   AT NODE ASSEMBLYINSTANCE-INS4.7321 OF 
   CONTACT PAIR (ASSEMBLY_M_SURF-SLAVE,ASSEMBLY_M_SURF-MASTER)
   MAX. CONTACT FORCE ERROR -140.172E-06   AT NODE ASSEMBLYINSTANCE-INS5.361 OF 
   CONTACT PAIR (ASSEMBLY_M_SURF-SLAVE,ASSEMBLY_M_SURF-MASTER)
          THE CONTACT CONSTRAINTS HAVE CONVERGED.

 AVERAGE FORCE                      0.860       TIME AVG. FORCE       0.447    
 LARGEST RESIDUAL FORCE            -1.246E-06   AT NODE        445   DOF  1
   INSTANCE: ASSEMBLYINSTANCE-CON3                                                           
 LARGEST INCREMENT OF DISP.         5.338E-05   AT NODE          1   DOF  1
   INSTANCE: ASSEMBLYINSTANCE-CON1                                                           
 LARGEST CORRECTION TO DISP.       -1.690E-11   AT NODE        231   DOF  1
   INSTANCE: ASSEMBLYINSTANCE-COW1                                                           
          THE FORCE     EQUILIBRIUM EQUATIONS HAVE CONVERGED
          TIME INCREMENT MAY NOW INCREASE TO    0.169    

 ITERATION SUMMARY FOR THE INCREMENT:   1 TOTAL ITERATIONS, OF WHICH
   0 ARE SEVERE DISCONTINUITY ITERATIONS AND  1 ARE EQUILIBRIUM ITERATIONS.

 TIME INCREMENT COMPLETED  0.113    ,  FRACTION OF STEP COMPLETED  0.288    
 STEP TIME COMPLETED       0.288    ,  TOTAL TIME COMPLETED        0.288    


  INCREMENT     5 STARTS. ATTEMPT NUMBER  1, TIME INCREMENT  0.169    
  
     ASYNCHRONOUS TRACKING ELEMENT LOOP STARTED
  

  NUMBER OF EQUATIONS =     72976     NUMBER OF RHS =    1
  NUMBER OF FLOATING PT. OPERATIONS =  1.58E+08

  USING THE DIRECT SOLVER WITH   4 PROCESSORS

     CHECK POINT   START OF SOLVER    

     CHECK POINT  END OF SOLVER       

       ELAPSED USER TIME (SEC)      =  0.20000    
       ELAPSED SYSTEM TIME (SEC)    =  0.10000    
       ELAPSED TOTAL CPU TIME (SEC) =  0.30000    
       ELAPSED WALLCLOCK TIME (SEC) =          0
  
     ASYNCHRONOUS TRACKING ELEMENT LOOP STARTED
  

               CONVERGENCE CHECKS FOR EQUILIBRIUM ITERATION     1

   MAX. PENETRATION ERROR 103.020E-18   AT NODE ASSEMBLYINSTANCE-INS4.2560 OF 
   CONTACT PAIR (ASSEMBLY_M_SURF-SLAVE,ASSEMBLY_M_SURF-MASTER)
   MAX. CONTACT FORCE ERROR 148.805E-06   AT NODE ASSEMBLYINSTANCE-INS5.511 OF 
   CONTACT PAIR (ASSEMBLY_M_SURF-SLAVE,ASSEMBLY_M_SURF-MASTER)
          THE CONTACT CONSTRAINTS HAVE CONVERGED.

 AVERAGE FORCE                       1.35       TIME AVG. FORCE       0.628    
 LARGEST RESIDUAL FORCE            -4.439E-06   AT NODE        445   DOF  1
   INSTANCE: ASSEMBLYINSTANCE-CON3                                                           
 LARGEST INCREMENT OF DISP.         8.007E-05   AT NODE          1   DOF  1
   INSTANCE: ASSEMBLYINSTANCE-CON1                                                           
 LARGEST CORRECTION TO DISP.       -3.798E-11   AT NODE        231   DOF  1
   INSTANCE: ASSEMBLYINSTANCE-COW1                                                           
          THE FORCE     EQUILIBRIUM EQUATIONS HAVE CONVERGED
          TIME INCREMENT MAY NOW INCREASE TO    0.253    

 ITERATION SUMMARY FOR THE INCREMENT:   1 TOTAL ITERATIONS, OF WHICH
   0 ARE SEVERE DISCONTINUITY ITERATIONS AND  1 ARE EQUILIBRIUM ITERATIONS.

 TIME INCREMENT COMPLETED  0.169    ,  FRACTION OF STEP COMPLETED  0.456    
 STEP TIME COMPLETED       0.456    ,  TOTAL TIME COMPLETED        0.456    


  INCREMENT     6 STARTS. ATTEMPT NUMBER  1, TIME INCREMENT  0.253    
  
     ASYNCHRONOUS TRACKING ELEMENT LOOP STARTED
  

  NUMBER OF EQUATIONS =     72976     NUMBER OF RHS =    1
  NUMBER OF FLOATING PT. OPERATIONS =  1.58E+08

  USING THE DIRECT SOLVER WITH   4 PROCESSORS

     CHECK POINT   START OF SOLVER    

     CHECK POINT  END OF SOLVER       

       ELAPSED USER TIME (SEC)      =  0.20000    
       ELAPSED SYSTEM TIME (SEC)    =   0.0000    
       ELAPSED TOTAL CPU TIME (SEC) =  0.20000    
       ELAPSED WALLCLOCK TIME (SEC) =          1
  
     ASYNCHRONOUS TRACKING ELEMENT LOOP STARTED
  

               CONVERGENCE CHECKS FOR EQUILIBRIUM ITERATION     1

   MAX. PENETRATION ERROR -102.192E-18   AT NODE ASSEMBLYINSTANCE-INS2.1776 OF 
   CONTACT PAIR (ASSEMBLY_M_SURF-SLAVE,ASSEMBLY_M_SURF-MASTER)
   MAX. CONTACT FORCE ERROR 147.353E-06   AT NODE ASSEMBLYINSTANCE-INS5.981 OF 
   CONTACT PAIR (ASSEMBLY_M_SURF-SLAVE,ASSEMBLY_M_SURF-MASTER)
          THE CONTACT CONSTRAINTS HAVE CONVERGED.

 AVERAGE FORCE                       2.08       TIME AVG. FORCE       0.871    
 LARGEST RESIDUAL FORCE            -1.546E-05   AT NODE        445   DOF  1
   INSTANCE: ASSEMBLYINSTANCE-CON3                                                           
 LARGEST INCREMENT OF DISP.         1.201E-04   AT NODE          1   DOF  1
   INSTANCE: ASSEMBLYINSTANCE-CON1                                                           
 LARGEST CORRECTION TO DISP.       -8.527E-11   AT NODE        231   DOF  1
   INSTANCE: ASSEMBLYINSTANCE-COW1                                                           
          THE FORCE     EQUILIBRIUM EQUATIONS HAVE CONVERGED
          TIME INCREMENT MAY NOW INCREASE TO    0.380    

 ITERATION SUMMARY FOR THE INCREMENT:   1 TOTAL ITERATIONS, OF WHICH
   0 ARE SEVERE DISCONTINUITY ITERATIONS AND  1 ARE EQUILIBRIUM ITERATIONS.

 TIME INCREMENT COMPLETED  0.253    ,  FRACTION OF STEP COMPLETED  0.709    
 STEP TIME COMPLETED       0.709    ,  TOTAL TIME COMPLETED        0.709    


  INCREMENT     7 STARTS. ATTEMPT NUMBER  1, TIME INCREMENT  0.291    
  
     ASYNCHRONOUS TRACKING ELEMENT LOOP STARTED
  

  NUMBER OF EQUATIONS =     72976     NUMBER OF RHS =    1
  NUMBER OF FLOATING PT. OPERATIONS =  1.58E+08

  USING THE DIRECT SOLVER WITH   4 PROCESSORS

     CHECK POINT   START OF SOLVER    

     CHECK POINT  END OF SOLVER       

       ELAPSED USER TIME (SEC)      =   0.0000    
       ELAPSED SYSTEM TIME (SEC)    =   0.0000    
       ELAPSED TOTAL CPU TIME (SEC) =   0.0000    
       ELAPSED WALLCLOCK TIME (SEC) =          1
  
     ASYNCHRONOUS TRACKING ELEMENT LOOP STARTED
  

               CONVERGENCE CHECKS FOR EQUILIBRIUM ITERATION     1

   MAX. PENETRATION ERROR -107.049E-18   AT NODE ASSEMBLYINSTANCE-INS5.1039 OF 
   CONTACT PAIR (ASSEMBLY_M_SURF-SLAVE,ASSEMBLY_M_SURF-MASTER)
   MAX. CONTACT FORCE ERROR -179.665E-06   AT NODE ASSEMBLYINSTANCE-INS5.1039 
   OF CONTACT PAIR (ASSEMBLY_M_SURF-SLAVE,ASSEMBLY_M_SURF-MASTER)
          THE CONTACT CONSTRAINTS HAVE CONVERGED.

 AVERAGE FORCE                       2.92       TIME AVG. FORCE        1.16    
 LARGEST RESIDUAL FORCE            -3.222E-05   AT NODE        445   DOF  1
   INSTANCE: ASSEMBLYINSTANCE-CON3                                                           
 LARGEST INCREMENT OF DISP.         1.379E-04   AT NODE          1   DOF  1
   INSTANCE: ASSEMBLYINSTANCE-CON1                                                           
 LARGEST CORRECTION TO DISP.       -1.258E-10   AT NODE        231   DOF  1
   INSTANCE: ASSEMBLYINSTANCE-COW1                                                           
          THE FORCE     EQUILIBRIUM EQUATIONS HAVE CONVERGED

 ITERATION SUMMARY FOR THE INCREMENT:   1 TOTAL ITERATIONS, OF WHICH
   0 ARE SEVERE DISCONTINUITY ITERATIONS AND  1 ARE EQUILIBRIUM ITERATIONS.

 TIME INCREMENT COMPLETED  0.291    ,  FRACTION OF STEP COMPLETED   1.00    
 STEP TIME COMPLETED        1.00    ,  TOTAL TIME COMPLETED         1.00    


          THE ANALYSIS HAS BEEN COMPLETED



     ANALYSIS SUMMARY:
     TOTAL OF          7  INCREMENTS
                       0  CUTBACKS IN AUTOMATIC INCREMENTATION
                       8  ITERATIONS INCLUDING CONTACT ITERATIONS IF PRESENT
                       8  PASSES THROUGH THE EQUATION SOLVER OF WHICH 
                       8  INVOLVE MATRIX DECOMPOSITION, INCLUDING
                       0  DECOMPOSITION(S) OF THE MASS MATRIX
                       1  REORDERING OF EQUATIONS TO MINIMIZE WAVEFRONT
                       0  ADDITIONAL RESIDUAL EVALUATIONS FOR LINE SEARCHES
                       0  ADDITIONAL OPERATOR EVALUATIONS FOR LINE SEARCHES
                       0  WARNING MESSAGES DURING USER INPUT PROCESSING
                       0  WARNING MESSAGES DURING ANALYSIS
                       0  ANALYSIS WARNINGS ARE NUMERICAL PROBLEM MESSAGES
                       0  ANALYSIS WARNINGS ARE NEGATIVE EIGENVALUE MESSAGES
                       0  ERROR MESSAGES



     JOB TIME SUMMARY
       USER TIME (SEC)      =   21.600    
       SYSTEM TIME (SEC)    =  0.90000    
       TOTAL CPU TIME (SEC) =   22.500    
       WALLCLOCK TIME (SEC) =         31
