*Heading
** Job name: Job-1 Model name: Model-1
** Generated by: Abaqus/CAE 2020
*Preprint, echo=NO, model=NO, history=NO, contact=NO
**
** PARTS
**
*Part, name=Part-Con1
*End Part
**  
*Part, name=Part-Con2
*End Part
**  
*Part, name=Part-Con3
*End Part
**  
*Part, name=Part-Con4
*End Part
**  
*Part, name=Part-Con5
*End Part
**  
*Part, name=Part-Cow1
*End Part
**  
*Part, name=Part-Cow2
*End Part
**  
*Part, name=Part-Cow3
*End Part
**  
*Part, name=Part-Cow4
*End Part
**  
*Part, name=Part-Cow5
*End Part
**  
*Part, name=Part-Ins1
*End Part
**  
*Part, name=Part-Ins2
*End Part
**  
*Part, name=Part-Ins3
*End Part
**  
*Part, name=Part-Ins4
*End Part
**  
*Part, name=Part-Ins5
*End Part
**  
**
** ASSEMBLY
**
*Assembly, name=Assembly
**  
*Instance, name=AssemblyInstance-Con1, part=Part-Con1
*Node
      1,  0.430000007,           0.
      2,  0.430029988,           0.
      3,  0.430059999,           0.
      4,   0.43009001,           0.
      5,  0.430119991,           0.
      6,  0.430000007, 4.54545443e-05
      7,  0.430029988, 4.54545443e-05
      8,  0.430059999, 4.54545443e-05
      9,   0.43009001, 4.54545443e-05
     10,  0.430119991, 4.54545443e-05
     11,  0.430000007, 9.09090886e-05
     12,  0.430029988, 9.09090886e-05
     13,  0.430059999, 9.09090886e-05
     14,   0.43009001, 9.09090886e-05
     15,  0.430119991, 9.09090886e-05
     16,  0.430000007, 0.00013636364
     17,  0.430029988, 0.00013636364
     18,  0.430059999, 0.00013636364
     19,   0.43009001, 0.00013636364
     20,  0.430119991, 0.00013636364
** ... 425 like lines cut
*Element, type=CAX4
  1,   1,   2,   7,   6
  2,   2,   3,   8,   7
  3,   3,   4,   9,   8
  4,   4,   5,  10,   9
  5,   6,   7,  12,  11
  6,   7,   8,  13,  12
  7,   8,   9,  14,  13
  8,   9,  10,  15,  14
  9,  11,  12,  17,  16
 10,  12,  13,  18,  17
 11,  13,  14,  19,  18
 12,  14,  15,  20,  19
 13,  16,  17,  22,  21
 14,  17,  18,  23,  22
 15,  18,  19,  24,  23
 16,  19,  20,  25,  24
 17,  21,  22,  27,  26
 18,  22,  23,  28,  27
 19,  23,  24,  29,  28
 20,  24,  25,  30,  29
** ... 332 like lines cut
*Nset, nset=_PickedSet2, internal, generate
   1,  445,    1
*Elset, elset=_PickedSet2, internal, generate
   1,  352,    1
** Section: Section-Con
*Solid Section, elset=_PickedSet2, material=Material-Con
,
*End Instance
**  
*Instance, name=AssemblyInstance-Cow1, part=Part-Cow1
*Node
      1,  0.430119991,           0.
      2,   0.43017751,           0.
      3,  0.430234998,           0.
      4,  0.430292487,           0.
      5,  0.430350006,           0.
      6,  0.430119991, 8.69565192e-05
      7,   0.43017751, 8.69565192e-05
      8,  0.430234998, 8.69565192e-05
      9,  0.430292487, 8.69565192e-05
     10,  0.430350006, 8.69565192e-05
     11,  0.430119991, 0.000173913038
     12,   0.43017751, 0.000173913038
     13,  0.430234998, 0.000173913038
     14,  0.430292487, 0.000173913038
     15,  0.430350006, 0.000173913038
     16,  0.430119991, 0.000260869565
     17,   0.43017751, 0.000260869565
     18,  0.430234998, 0.000260869565
     19,  0.430292487, 0.000260869565
     20,  0.430350006, 0.000260869565
** ... 215 like lines cut
*Element, type=CAX4
  1,   1,   2,   7,   6
  2,   2,   3,   8,   7
  3,   3,   4,   9,   8
  4,   4,   5,  10,   9
  5,   6,   7,  12,  11
  6,   7,   8,  13,  12
  7,   8,   9,  14,  13
  8,   9,  10,  15,  14
  9,  11,  12,  17,  16
 10,  12,  13,  18,  17
 11,  13,  14,  19,  18
 12,  14,  15,  20,  19
 13,  16,  17,  22,  21
 14,  17,  18,  23,  22
 15,  18,  19,  24,  23
 16,  19,  20,  25,  24
 17,  21,  22,  27,  26
 18,  22,  23,  28,  27
 19,  23,  24,  29,  28
 20,  24,  25,  30,  29
** ... 164 like lines cut
*Nset, nset=_PickedSet2, internal, generate
   1,  235,    1
*Elset, elset=_PickedSet2, internal, generate
   1,  184,    1
** Section: Section-Cow
*Solid Section, elset=_PickedSet2, material=Material-Cow
,
*End Instance
**  
*Instance, name=AssemblyInstance-Ins1, part=Part-Ins1
*Node
      1,  0.430350006,           0.
      2,  0.430352509,           0.
      3,  0.430355012,           0.
      4,  0.430357486,           0.
      5,  0.430359989,           0.
      6,  0.430350006, 2.49999994e-06
      7,  0.430352509, 2.49999994e-06
      8,  0.430355012, 2.49999994e-06
      9,  0.430357486, 2.49999994e-06
     10,  0.430359989, 2.49999994e-06
     11,  0.430350006, 4.99999987e-06
     12,  0.430352509, 4.99999987e-06
     13,  0.430355012, 4.99999987e-06
     14,  0.430357486, 4.99999987e-06
     15,  0.430359989, 4.99999987e-06
     16,  0.430350006, 7.49999981e-06
     17,  0.430352509, 7.49999981e-06
     18,  0.430355012, 7.49999981e-06
     19,  0.430357486, 7.49999981e-06
     20,  0.430359989, 7.49999981e-06
** ... 7985 like lines cut
*Element, type=CAX4
   1,    1,    2,    7,    6
   2,    2,    3,    8,    7
   3,    3,    4,    9,    8
   4,    4,    5,   10,    9
   5,    6,    7,   12,   11
   6,    7,    8,   13,   12
   7,    8,    9,   14,   13
   8,    9,   10,   15,   14
   9,   11,   12,   17,   16
  10,   12,   13,   18,   17
  11,   13,   14,   19,   18
  12,   14,   15,   20,   19
  13,   16,   17,   22,   21
  14,   17,   18,   23,   22
  15,   18,   19,   24,   23
  16,   19,   20,   25,   24
  17,   21,   22,   27,   26
  18,   22,   23,   28,   27
  19,   23,   24,   29,   28
  20,   24,   25,   30,   29
** ... 6380 like lines cut
*Nset, nset=_PickedSet2, internal, generate
    1,  8005,     1
*Elset, elset=_PickedSet2, internal, generate
    1,  6400,     1
** Section: Section-Ins
*Solid Section, elset=_PickedSet2, material=Material-Ins
,
*End Instance
**  
*Instance, name=AssemblyInstance-Con2, part=Part-Con2
*Node
      1,  0.430359989,           0.
      2,      0.43039,           0.
      3,  0.430420011,           0.
      4,  0.430449992,           0.
      5,  0.430480003,           0.
      6,  0.430359989, 4.54545443e-05
      7,      0.43039, 4.54545443e-05
      8,  0.430420011, 4.54545443e-05
      9,  0.430449992, 4.54545443e-05
     10,  0.430480003, 4.54545443e-05
     11,  0.430359989, 9.09090886e-05
     12,      0.43039, 9.09090886e-05
     13,  0.430420011, 9.09090886e-05
     14,  0.430449992, 9.09090886e-05
     15,  0.430480003, 9.09090886e-05
     16,  0.430359989, 0.00013636364
     17,      0.43039, 0.00013636364
     18,  0.430420011, 0.00013636364
     19,  0.430449992, 0.00013636364
     20,  0.430480003, 0.00013636364
** ... 425 like lines cut
*Element, type=CAX4
  1,   1,   2,   7,   6
  2,   2,   3,   8,   7
  3,   3,   4,   9,   8
  4,   4,   5,  10,   9
  5,   6,   7,  12,  11
  6,   7,   8,  13,  12
  7,   8,   9,  14,  13
  8,   9,  10,  15,  14
  9,  11,  12,  17,  16
 10,  12,  13,  18,  17
 11,  13,  14,  19,  18
 12,  14,  15,  20,  19
 13,  16,  17,  22,  21
 14,  17,  18,  23,  22
 15,  18,  19,  24,  23
 16,  19,  20,  25,  24
 17,  21,  22,  27,  26
 18,  22,  23,  28,  27
 19,  23,  24,  29,  28
 20,  24,  25,  30,  29
** ... 332 like lines cut
*Nset, nset=_PickedSet2, internal, generate
   1,  445,    1
*Elset, elset=_PickedSet2, internal, generate
   1,  352,    1
** Section: Section-Con
*Solid Section, elset=_PickedSet2, material=Material-Con
,
*End Instance
**  
*Instance, name=AssemblyInstance-Cow2, part=Part-Cow2
*Node
      1,  0.430480003,           0.
      2,  0.430537492,           0.
      3,  0.430595011,           0.
      4,  0.430652499,           0.
      5,  0.430709988,           0.
      6,  0.430480003, 8.69565192e-05
      7,  0.430537492, 8.69565192e-05
      8,  0.430595011, 8.69565192e-05
      9,  0.430652499, 8.69565192e-05
     10,  0.430709988, 8.69565192e-05
     11,  0.430480003, 0.000173913038
     12,  0.430537492, 0.000173913038
     13,  0.430595011, 0.000173913038
     14,  0.430652499, 0.000173913038
     15,  0.430709988, 0.000173913038
     16,  0.430480003, 0.000260869565
     17,  0.430537492, 0.000260869565
     18,  0.430595011, 0.000260869565
     19,  0.430652499, 0.000260869565
     20,  0.430709988, 0.000260869565
** ... 215 like lines cut
*Element, type=CAX4
  1,   1,   2,   7,   6
  2,   2,   3,   8,   7
  3,   3,   4,   9,   8
  4,   4,   5,  10,   9
  5,   6,   7,  12,  11
  6,   7,   8,  13,  12
  7,   8,   9,  14,  13
  8,   9,  10,  15,  14
  9,  11,  12,  17,  16
 10,  12,  13,  18,  17
 11,  13,  14,  19,  18
 12,  14,  15,  20,  19
 13,  16,  17,  22,  21
 14,  17,  18,  23,  22
 15,  18,  19,  24,  23
 16,  19,  20,  25,  24
 17,  21,  22,  27,  26
 18,  22,  23,  28,  27
 19,  23,  24,  29,  28
 20,  24,  25,  30,  29
** ... 164 like lines cut
*Nset, nset=_PickedSet2, internal, generate
   1,  235,    1
*Elset, elset=_PickedSet2, internal, generate
   1,  184,    1
** Section: Section-Cow
*Solid Section, elset=_PickedSet2, material=Material-Cow
,
*End Instance
**  
*Instance, name=AssemblyInstance-Ins2, part=Part-Ins2
*Node
      1,  0.430709988,           0.
      2,  0.430712491,           0.
      3,  0.430714995,           0.
      4,  0.430717498,           0.
      5,  0.430720001,           0.
      6,  0.430709988, 2.49999994e-06
      7,  0.430712491, 2.49999994e-06
      8,  0.430714995, 2.49999994e-06
      9,  0.430717498, 2.49999994e-06
     10,  0.430720001, 2.49999994e-06
     11,  0.430709988, 4.99999987e-06
     12,  0.430712491, 4.99999987e-06
     13,  0.430714995, 4.99999987e-06
     14,  0.430717498, 4.99999987e-06
     15,  0.430720001, 4.99999987e-06
     16,  0.430709988, 7.49999981e-06
     17,  0.430712491, 7.49999981e-06
     18,  0.430714995, 7.49999981e-06
     19,  0.430717498, 7.49999981e-06
     20,  0.430720001, 7.49999981e-06
** ... 7985 like lines cut
*Element, type=CAX4
   1,    1,    2,    7,    6
   2,    2,    3,    8,    7
   3,    3,    4,    9,    8
   4,    4,    5,   10,    9
   5,    6,    7,   12,   11
   6,    7,    8,   13,   12
   7,    8,    9,   14,   13
   8,    9,   10,   15,   14
   9,   11,   12,   17,   16
  10,   12,   13,   18,   17
  11,   13,   14,   19,   18
  12,   14,   15,   20,   19
  13,   16,   17,   22,   21
  14,   17,   18,   23,   22
  15,   18,   19,   24,   23
  16,   19,   20,   25,   24
  17,   21,   22,   27,   26
  18,   22,   23,   28,   27
  19,   23,   24,   29,   28
  20,   24,   25,   30,   29
** ... 6380 like lines cut
*Nset, nset=_PickedSet2, internal, generate
    1,  8005,     1
*Elset, elset=_PickedSet2, internal, generate
    1,  6400,     1
** Section: Section-Ins
*Solid Section, elset=_PickedSet2, material=Material-Ins
,
*End Instance
**  
*Instance, name=AssemblyInstance-Con3, part=Part-Con3
*Node
      1,  0.430720001,           0.
      2,  0.430750012,           0.
      3,  0.430779994,           0.
      4,  0.430810004,           0.
      5,  0.430839986,           0.
      6,  0.430720001, 4.54545443e-05
      7,  0.430750012, 4.54545443e-05
      8,  0.430779994, 4.54545443e-05
      9,  0.430810004, 4.54545443e-05
     10,  0.430839986, 4.54545443e-05
     11,  0.430720001, 9.09090886e-05
     12,  0.430750012, 9.09090886e-05
     13,  0.430779994, 9.09090886e-05
     14,  0.430810004, 9.09090886e-05
     15,  0.430839986, 9.09090886e-05
     16,  0.430720001, 0.00013636364
     17,  0.430750012, 0.00013636364
     18,  0.430779994, 0.00013636364
     19,  0.430810004, 0.00013636364
     20,  0.430839986, 0.00013636364
** ... 425 like lines cut
*Element, type=CAX4
  1,   1,   2,   7,   6
  2,   2,   3,   8,   7
  3,   3,   4,   9,   8
  4,   4,   5,  10,   9
  5,   6,   7,  12,  11
  6,   7,   8,  13,  12
  7,   8,   9,  14,  13
  8,   9,  10,  15,  14
  9,  11,  12,  17,  16
 10,  12,  13,  18,  17
 11,  13,  14,  19,  18
 12,  14,  15,  20,  19
 13,  16,  17,  22,  21
 14,  17,  18,  23,  22
 15,  18,  19,  24,  23
 16,  19,  20,  25,  24
 17,  21,  22,  27,  26
 18,  22,  23,  28,  27
 19,  23,  24,  29,  28
 20,  24,  25,  30,  29
** ... 332 like lines cut
*Nset, nset=_PickedSet2, internal, generate
   1,  445,    1
*Elset, elset=_PickedSet2, internal, generate
   1,  352,    1
** Section: Section-Con
*Solid Section, elset=_PickedSet2, material=Material-Con
,
*End Instance
**  
*Instance, name=AssemblyInstance-Cow3, part=Part-Cow3
*Node
      1,  0.430839986,           0.
      2,  0.430897504,           0.
      3,  0.430954993,           0.
      4,  0.431012511,           0.
      5,      0.43107,           0.
      6,  0.430839986, 8.69565192e-05
      7,  0.430897504, 8.69565192e-05
      8,  0.430954993, 8.69565192e-05
      9,  0.431012511, 8.69565192e-05
     10,      0.43107, 8.69565192e-05
     11,  0.430839986, 0.000173913038
     12,  0.430897504, 0.000173913038
     13,  0.430954993, 0.000173913038
     14,  0.431012511, 0.000173913038
     15,      0.43107, 0.000173913038
     16,  0.430839986, 0.000260869565
     17,  0.430897504, 0.000260869565
     18,  0.430954993, 0.000260869565
     19,  0.431012511, 0.000260869565
     20,      0.43107, 0.000260869565
** ... 215 like lines cut
*Element, type=CAX4
  1,   1,   2,   7,   6
  2,   2,   3,   8,   7
  3,   3,   4,   9,   8
  4,   4,   5,  10,   9
  5,   6,   7,  12,  11
  6,   7,   8,  13,  12
  7,   8,   9,  14,  13
  8,   9,  10,  15,  14
  9,  11,  12,  17,  16
 10,  12,  13,  18,  17
 11,  13,  14,  19,  18
 12,  14,  15,  20,  19
 13,  16,  17,  22,  21
 14,  17,  18,  23,  22
 15,  18,  19,  24,  23
 16,  19,  20,  25,  24
 17,  21,  22,  27,  26
 18,  22,  23,  28,  27
 19,  23,  24,  29,  28
 20,  24,  25,  30,  29
** ... 164 like lines cut
*Nset, nset=_PickedSet2, internal, generate
   1,  235,    1
*Elset, elset=_PickedSet2, internal, generate
   1,  184,    1
** Section: Section-Cow
*Solid Section, elset=_PickedSet2, material=Material-Cow
,
*End Instance
**  
*Instance, name=AssemblyInstance-Ins3, part=Part-Ins3
*Node
      1,      0.43107,           0.
      2,  0.431072503,           0.
      3,  0.431075007,           0.
      4,   0.43107751,           0.
      5,  0.431080014,           0.
      6,      0.43107, 2.49999994e-06
      7,  0.431072503, 2.49999994e-06
      8,  0.431075007, 2.49999994e-06
      9,   0.43107751, 2.49999994e-06
     10,  0.431080014, 2.49999994e-06
     11,      0.43107, 4.99999987e-06
     12,  0.431072503, 4.99999987e-06
     13,  0.431075007, 4.99999987e-06
     14,   0.43107751, 4.99999987e-06
     15,  0.431080014, 4.99999987e-06
     16,      0.43107, 7.49999981e-06
     17,  0.431072503, 7.49999981e-06
     18,  0.431075007, 7.49999981e-06
     19,   0.43107751, 7.49999981e-06
     20,  0.431080014, 7.49999981e-06
** ... 7985 like lines cut
*Element, type=CAX4
   1,    1,    2,    7,    6
   2,    2,    3,    8,    7
   3,    3,    4,    9,    8
   4,    4,    5,   10,    9
   5,    6,    7,   12,   11
   6,    7,    8,   13,   12
   7,    8,    9,   14,   13
   8,    9,   10,   15,   14
   9,   11,   12,   17,   16
  10,   12,   13,   18,   17
  11,   13,   14,   19,   18
  12,   14,   15,   20,   19
  13,   16,   17,   22,   21
  14,   17,   18,   23,   22
  15,   18,   19,   24,   23
  16,   19,   20,   25,   24
  17,   21,   22,   27,   26
  18,   22,   23,   28,   27
  19,   23,   24,   29,   28
  20,   24,   25,   30,   29
** ... 6380 like lines cut
*Nset, nset=_PickedSet2, internal, generate
    1,  8005,     1
*Elset, elset=_PickedSet2, internal, generate
    1,  6400,     1
** Section: Section-Ins
*Solid Section, elset=_PickedSet2, material=Material-Ins
,
*End Instance
**  
*Instance, name=AssemblyInstance-Con4, part=Part-Con4
*Node
      1,  0.431080014,           0.
      2,  0.431109995,           0.
      3,  0.431140006,           0.
      4,  0.431169987,           0.
      5,  0.431199998,           0.
      6,  0.431080014, 4.54545443e-05
      7,  0.431109995, 4.54545443e-05
      8,  0.431140006, 4.54545443e-05
      9,  0.431169987, 4.54545443e-05
     10,  0.431199998, 4.54545443e-05
     11,  0.431080014, 9.09090886e-05
     12,  0.431109995, 9.09090886e-05
     13,  0.431140006, 9.09090886e-05
     14,  0.431169987, 9.09090886e-05
     15,  0.431199998, 9.09090886e-05
     16,  0.431080014, 0.00013636364
     17,  0.431109995, 0.00013636364
     18,  0.431140006, 0.00013636364
     19,  0.431169987, 0.00013636364
     20,  0.431199998, 0.00013636364
** ... 425 like lines cut
*Element, type=CAX4
  1,   1,   2,   7,   6
  2,   2,   3,   8,   7
  3,   3,   4,   9,   8
  4,   4,   5,  10,   9
  5,   6,   7,  12,  11
  6,   7,   8,  13,  12
  7,   8,   9,  14,  13
  8,   9,  10,  15,  14
  9,  11,  12,  17,  16
 10,  12,  13,  18,  17
 11,  13,  14,  19,  18
 12,  14,  15,  20,  19
 13,  16,  17,  22,  21
 14,  17,  18,  23,  22
 15,  18,  19,  24,  23
 16,  19,  20,  25,  24
 17,  21,  22,  27,  26
 18,  22,  23,  28,  27
 19,  23,  24,  29,  28
 20,  24,  25,  30,  29
** ... 332 like lines cut
*Nset, nset=_PickedSet2, internal, generate
   1,  445,    1
*Elset, elset=_PickedSet2, internal, generate
   1,  352,    1
** Section: Section-Con
*Solid Section, elset=_PickedSet2, material=Material-Con
,
*End Instance
**  
*Instance, name=AssemblyInstance-Cow4, part=Part-Cow4
*Node
      1,  0.431199998,           0.
      2,  0.431257486,           0.
      3,  0.431315005,           0.
      4,  0.431372494,           0.
      5,  0.431430012,           0.
      6,  0.431199998, 8.69565192e-05
      7,  0.431257486, 8.69565192e-05
      8,  0.431315005, 8.69565192e-05
      9,  0.431372494, 8.69565192e-05
     10,  0.431430012, 8.69565192e-05
     11,  0.431199998, 0.000173913038
     12,  0.431257486, 0.000173913038
     13,  0.431315005, 0.000173913038
     14,  0.431372494, 0.000173913038
     15,  0.431430012, 0.000173913038
     16,  0.431199998, 0.000260869565
     17,  0.431257486, 0.000260869565
     18,  0.431315005, 0.000260869565
     19,  0.431372494, 0.000260869565
     20,  0.431430012, 0.000260869565
** ... 215 like lines cut
*Element, type=CAX4
  1,   1,   2,   7,   6
  2,   2,   3,   8,   7
  3,   3,   4,   9,   8
  4,   4,   5,  10,   9
  5,   6,   7,  12,  11
  6,   7,   8,  13,  12
  7,   8,   9,  14,  13
  8,   9,  10,  15,  14
  9,  11,  12,  17,  16
 10,  12,  13,  18,  17
 11,  13,  14,  19,  18
 12,  14,  15,  20,  19
 13,  16,  17,  22,  21
 14,  17,  18,  23,  22
 15,  18,  19,  24,  23
 16,  19,  20,  25,  24
 17,  21,  22,  27,  26
 18,  22,  23,  28,  27
 19,  23,  24,  29,  28
 20,  24,  25,  30,  29
** ... 164 like lines cut
*Nset, nset=_PickedSet2, internal, generate
   1,  235,    1
*Elset, elset=_PickedSet2, internal, generate
   1,  184,    1
** Section: Section-Cow
*Solid Section, elset=_PickedSet2, material=Material-Cow
,
*End Instance
**  
*Instance, name=AssemblyInstance-Ins4, part=Part-Ins4
*Node
      1,  0.431430012,           0.
      2,  0.431432486,           0.
      3,  0.431434989,           0.
      4,  0.431437492,           0.
      5,  0.431439996,           0.
      6,  0.431430012, 2.49999994e-06
      7,  0.431432486, 2.49999994e-06
      8,  0.431434989, 2.49999994e-06
      9,  0.431437492, 2.49999994e-06
     10,  0.431439996, 2.49999994e-06
     11,  0.431430012, 4.99999987e-06
     12,  0.431432486, 4.99999987e-06
     13,  0.431434989, 4.99999987e-06
     14,  0.431437492, 4.99999987e-06
     15,  0.431439996, 4.99999987e-06
     16,  0.431430012, 7.49999981e-06
     17,  0.431432486, 7.49999981e-06
     18,  0.431434989, 7.49999981e-06
     19,  0.431437492, 7.49999981e-06
     20,  0.431439996, 7.49999981e-06
** ... 7985 like lines cut
*Element, type=CAX4
   1,    1,    2,    7,    6
   2,    2,    3,    8,    7
   3,    3,    4,    9,    8
   4,    4,    5,   10,    9
   5,    6,    7,   12,   11
   6,    7,    8,   13,   12
   7,    8,    9,   14,   13
   8,    9,   10,   15,   14
   9,   11,   12,   17,   16
  10,   12,   13,   18,   17
  11,   13,   14,   19,   18
  12,   14,   15,   20,   19
  13,   16,   17,   22,   21
  14,   17,   18,   23,   22
  15,   18,   19,   24,   23
  16,   19,   20,   25,   24
  17,   21,   22,   27,   26
  18,   22,   23,   28,   27
  19,   23,   24,   29,   28
  20,   24,   25,   30,   29
** ... 6380 like lines cut
*Nset, nset=_PickedSet2, internal, generate
    1,  8005,     1
*Elset, elset=_PickedSet2, internal, generate
    1,  6400,     1
** Section: Section-Ins
*Solid Section, elset=_PickedSet2, material=Material-Ins
,
*End Instance
**  
*Instance, name=AssemblyInstance-Con5, part=Part-Con5
*Node
      1,  0.431439996,           0.
      2,  0.431470007,           0.
      3,  0.431499988,           0.
      4,  0.431529999,           0.
      5,   0.43156001,           0.
      6,  0.431439996, 4.54545443e-05
      7,  0.431470007, 4.54545443e-05
      8,  0.431499988, 4.54545443e-05
      9,  0.431529999, 4.54545443e-05
     10,   0.43156001, 4.54545443e-05
     11,  0.431439996, 9.09090886e-05
     12,  0.431470007, 9.09090886e-05
     13,  0.431499988, 9.09090886e-05
     14,  0.431529999, 9.09090886e-05
     15,   0.43156001, 9.09090886e-05
     16,  0.431439996, 0.00013636364
     17,  0.431470007, 0.00013636364
     18,  0.431499988, 0.00013636364
     19,  0.431529999, 0.00013636364
     20,   0.43156001, 0.00013636364
** ... 425 like lines cut
*Element, type=CAX4
  1,   1,   2,   7,   6
  2,   2,   3,   8,   7
  3,   3,   4,   9,   8
  4,   4,   5,  10,   9
  5,   6,   7,  12,  11
  6,   7,   8,  13,  12
  7,   8,   9,  14,  13
  8,   9,  10,  15,  14
  9,  11,  12,  17,  16
 10,  12,  13,  18,  17
 11,  13,  14,  19,  18
 12,  14,  15,  20,  19
 13,  16,  17,  22,  21
 14,  17,  18,  23,  22
 15,  18,  19,  24,  23
 16,  19,  20,  25,  24
 17,  21,  22,  27,  26
 18,  22,  23,  28,  27
 19,  23,  24,  29,  28
 20,  24,  25,  30,  29
** ... 332 like lines cut
*Nset, nset=_PickedSet2, internal, generate
   1,  445,    1
*Elset, elset=_PickedSet2, internal, generate
   1,  352,    1
** Section: Section-Con
*Solid Section, elset=_PickedSet2, material=Material-Con
,
*End Instance
**  
*Instance, name=AssemblyInstance-Cow5, part=Part-Cow5
*Node
      1,   0.43156001,           0.
      2,  0.431617498,           0.
      3,  0.431674987,           0.
      4,  0.431732506,           0.
      5,  0.431789994,           0.
      6,   0.43156001, 8.69565192e-05
      7,  0.431617498, 8.69565192e-05
      8,  0.431674987, 8.69565192e-05
      9,  0.431732506, 8.69565192e-05
     10,  0.431789994, 8.69565192e-05
     11,   0.43156001, 0.000173913038
     12,  0.431617498, 0.000173913038
     13,  0.431674987, 0.000173913038
     14,  0.431732506, 0.000173913038
     15,  0.431789994, 0.000173913038
     16,   0.43156001, 0.000260869565
     17,  0.431617498, 0.000260869565
     18,  0.431674987, 0.000260869565
     19,  0.431732506, 0.000260869565
     20,  0.431789994, 0.000260869565
** ... 215 like lines cut
*Element, type=CAX4
  1,   1,   2,   7,   6
  2,   2,   3,   8,   7
  3,   3,   4,   9,   8
  4,   4,   5,  10,   9
  5,   6,   7,  12,  11
  6,   7,   8,  13,  12
  7,   8,   9,  14,  13
  8,   9,  10,  15,  14
  9,  11,  12,  17,  16
 10,  12,  13,  18,  17
 11,  13,  14,  19,  18
 12,  14,  15,  20,  19
 13,  16,  17,  22,  21
 14,  17,  18,  23,  22
 15,  18,  19,  24,  23
 16,  19,  20,  25,  24
 17,  21,  22,  27,  26
 18,  22,  23,  28,  27
 19,  23,  24,  29,  28
 20,  24,  25,  30,  29
** ... 164 like lines cut
*Nset, nset=_PickedSet2, internal, generate
   1,  235,    1
*Elset, elset=_PickedSet2, internal, generate
   1,  184,    1
** Section: Section-Cow
*Solid Section, elset=_PickedSet2, material=Material-Cow
,
*End Instance
**  
*Instance, name=AssemblyInstance-Ins5, part=Part-Ins5
*Node
      1,  0.431789994,           0.
      2,  0.431800008,           0.
      3,  0.431789994, 7.50469053e-06
      4,  0.431800008, 7.50469053e-06
      5,  0.431789994, 1.50093811e-05
      6,  0.431800008, 1.50093811e-05
      7,  0.431789994, 2.2514072e-05
      8,  0.431800008, 2.2514072e-05
      9,  0.431789994, 3.00187621e-05
     10,  0.431800008, 3.00187621e-05
     11,  0.431789994, 3.75234522e-05
     12,  0.431800008, 3.75234522e-05
     13,  0.431789994, 4.50281441e-05
     14,  0.431800008, 4.50281441e-05
     15,  0.431789994, 5.25328323e-05
     16,  0.431800008, 5.25328323e-05
     17,  0.431789994, 6.00375242e-05
     18,  0.431800008, 6.00375242e-05
     19,  0.431789994, 6.75422125e-05
     20,  0.431800008, 6.75422125e-05
** ... 1048 like lines cut
*Element, type=CAX4
  1,    1,    2,    4,    3
  2,    3,    4,    6,    5
  3,    5,    6,    8,    7
  4,    7,    8,   10,    9
  5,    9,   10,   12,   11
  6,   11,   12,   14,   13
  7,   13,   14,   16,   15
  8,   15,   16,   18,   17
  9,   17,   18,   20,   19
 10,   19,   20,   22,   21
 11,   21,   22,   24,   23
 12,   23,   24,   26,   25
 13,   25,   26,   28,   27
 14,   27,   28,   30,   29
 15,   29,   30,   32,   31
 16,   31,   32,   34,   33
 17,   33,   34,   36,   35
 18,   35,   36,   38,   37
 19,   37,   38,   40,   39
 20,   39,   40,   42,   41
** ... 513 like lines cut
*Nset, nset=_PickedSet2, internal, generate
    1,  1068,     1
*Elset, elset=_PickedSet2, internal, generate
   1,  533,    1
** Section: Section-Ins
*Solid Section, elset=_PickedSet2, material=Material-Ins
,
*End Instance
**  
*Nset, nset=Set-Bc, instance=AssemblyInstance-Con1, generate
 1,  5,  1
*Nset, nset=Set-Bc, instance=AssemblyInstance-Cow1, generate
 1,  5,  1
*Nset, nset=Set-Bc, instance=AssemblyInstance-Ins1, generate
 1,  5,  1
*Nset, nset=Set-Bc, instance=AssemblyInstance-Cow2, generate
 1,  5,  1
*Nset, nset=Set-Bc, instance=AssemblyInstance-Ins3, generate
 1,  5,  1
*Nset, nset=Set-Bc, instance=AssemblyInstance-Con5, generate
 1,  5,  1
*Nset, nset=Set-Bc, instance=AssemblyInstance-Con3, generate
 1,  5,  1
*Nset, nset=Set-Bc, instance=AssemblyInstance-Cow4, generate
 1,  5,  1
*Nset, nset=Set-Bc, instance=AssemblyInstance-Ins5
 1, 2
*Nset, nset=Set-Bc, instance=AssemblyInstance-Con2, generate
 1,  5,  1
*Nset, nset=Set-Bc, instance=AssemblyInstance-Ins2, generate
 1,  5,  1
*Nset, nset=Set-Bc, instance=AssemblyInstance-Con4, generate
 1,  5,  1
*Nset, nset=Set-Bc, instance=AssemblyInstance-Cow5, generate
 1,  5,  1
*Nset, nset=Set-Bc, instance=AssemblyInstance-Cow3, generate
 1,  5,  1
*Nset, nset=Set-Bc, instance=AssemblyInstance-Ins4, generate
 1,  5,  1
*Elset, elset=Set-Bc, instance=AssemblyInstance-Con1, generate
 1,  4,  1
*Elset, elset=Set-Bc, instance=AssemblyInstance-Cow1, generate
 1,  4,  1
*Elset, elset=Set-Bc, instance=AssemblyInstance-Ins1, generate
 1,  4,  1
*Elset, elset=Set-Bc, instance=AssemblyInstance-Cow2, generate
 1,  4,  1
*Elset, elset=Set-Bc, instance=AssemblyInstance-Ins3, generate
 1,  4,  1
*Elset, elset=Set-Bc, instance=AssemblyInstance-Con5, generate
 1,  4,  1
*Elset, elset=Set-Bc, instance=AssemblyInstance-Con3, generate
 1,  4,  1
*Elset, elset=Set-Bc, instance=AssemblyInstance-Cow4, generate
 1,  4,  1
*Elset, elset=Set-Bc, instance=AssemblyInstance-Ins5
 1,
*Elset, elset=Set-Bc, instance=AssemblyInstance-Con2, generate
 1,  4,  1
*Elset, elset=Set-Bc, instance=AssemblyInstance-Ins2, generate
 1,  4,  1
*Elset, elset=Set-Bc, instance=AssemblyInstance-Con4, generate
 1,  4,  1
*Elset, elset=Set-Bc, instance=AssemblyInstance-Cow5, generate
 1,  4,  1
*Elset, elset=Set-Bc, instance=AssemblyInstance-Cow3, generate
 1,  4,  1
*Elset, elset=Set-Bc, instance=AssemblyInstance-Ins4, generate
 1,  4,  1
*Nset, nset=Set-BodyForce, instance=AssemblyInstance-Con1, generate
   1,  445,    1
*Nset, nset=Set-BodyForce, instance=AssemblyInstance-Con2, generate
   1,  445,    1
*Nset, nset=Set-BodyForce, instance=AssemblyInstance-Con3, generate
   1,  445,    1
*Nset, nset=Set-BodyForce, instance=AssemblyInstance-Con5, generate
   1,  445,    1
*Nset, nset=Set-BodyForce, instance=AssemblyInstance-Con4, generate
   1,  445,    1
*Elset, elset=Set-BodyForce, instance=AssemblyInstance-Con1, generate
   1,  352,    1
*Elset, elset=Set-BodyForce, instance=AssemblyInstance-Con2, generate
   1,  352,    1
*Elset, elset=Set-BodyForce, instance=AssemblyInstance-Con3, generate
   1,  352,    1
*Elset, elset=Set-BodyForce, instance=AssemblyInstance-Con5, generate
   1,  352,    1
*Elset, elset=Set-BodyForce, instance=AssemblyInstance-Con4, generate
   1,  352,    1
*Elset, elset=_m_Surf-Master_S4, internal, instance=AssemblyInstance-Con1, generate
   1,  349,    4
*Elset, elset=_m_Surf-Master_S4, internal, instance=AssemblyInstance-Cow1, generate
   1,  181,    4
*Elset, elset=_m_Surf-Master_S4, internal, instance=AssemblyInstance-Cow2, generate
   1,  181,    4
*Elset, elset=_m_Surf-Master_S4, internal, instance=AssemblyInstance-Con5, generate
   1,  349,    4
*Elset, elset=_m_Surf-Master_S4, internal, instance=AssemblyInstance-Con3, generate
   1,  349,    4
*Elset, elset=_m_Surf-Master_S4, internal, instance=AssemblyInstance-Cow4, generate
   1,  181,    4
*Elset, elset=_m_Surf-Master_S4, internal, instance=AssemblyInstance-Con2, generate
   1,  349,    4
*Elset, elset=_m_Surf-Master_S4, internal, instance=AssemblyInstance-Con4, generate
   1,  349,    4
*Elset, elset=_m_Surf-Master_S4, internal, instance=AssemblyInstance-Cow5, generate
   1,  181,    4
*Elset, elset=_m_Surf-Master_S4, internal, instance=AssemblyInstance-Cow3, generate
   1,  181,    4
*Elset, elset=_m_Surf-Master_S2, internal, instance=AssemblyInstance-Cow1, generate
   4,  184,    4
*Elset, elset=_m_Surf-Master_S2, internal, instance=AssemblyInstance-Cow2, generate
   4,  184,    4
*Elset, elset=_m_Surf-Master_S2, internal, instance=AssemblyInstance-Cow4, generate
   4,  184,    4
*Elset, elset=_m_Surf-Master_S2, internal, instance=AssemblyInstance-Cow5, generate
   4,  184,    4
*Elset, elset=_m_Surf-Master_S2, internal, instance=AssemblyInstance-Cow3, generate
   4,  184,    4
*Surface, type=ELEMENT, name=m_Surf-Master
_m_Surf-Master_S4, S4
_m_Surf-Master_S2, S2
*Elset, elset=_m_Surf-Slave_S2, internal, instance=AssemblyInstance-Con1, generate
   4,  352,    4
*Elset, elset=_m_Surf-Slave_S2, internal, instance=AssemblyInstance-Ins1, generate
    4,  6400,     4
*Elset, elset=_m_Surf-Slave_S2, internal, instance=AssemblyInstance-Con3, generate
   4,  352,    4
*Elset, elset=_m_Surf-Slave_S2, internal, instance=AssemblyInstance-Ins3, generate
    4,  6400,     4
*Elset, elset=_m_Surf-Slave_S2, internal, instance=AssemblyInstance-Con5, generate
   4,  352,    4
*Elset, elset=_m_Surf-Slave_S2, internal, instance=AssemblyInstance-Ins5, generate
   1,  533,    1
*Elset, elset=_m_Surf-Slave_S2, internal, instance=AssemblyInstance-Con2, generate
   4,  352,    4
*Elset, elset=_m_Surf-Slave_S2, internal, instance=AssemblyInstance-Ins2, generate
    4,  6400,     4
*Elset, elset=_m_Surf-Slave_S2, internal, instance=AssemblyInstance-Con4, generate
   4,  352,    4
*Elset, elset=_m_Surf-Slave_S2, internal, instance=AssemblyInstance-Ins4, generate
    4,  6400,     4
*Elset, elset=_m_Surf-Slave_S4, internal, instance=AssemblyInstance-Ins1, generate
    1,  6397,     4
*Elset, elset=_m_Surf-Slave_S4, internal, instance=AssemblyInstance-Ins3, generate
    1,  6397,     4
*Elset, elset=_m_Surf-Slave_S4, internal, instance=AssemblyInstance-Ins5, generate
   1,  533,    1
*Elset, elset=_m_Surf-Slave_S4, internal, instance=AssemblyInstance-Ins2, generate
    1,  6397,     4
*Elset, elset=_m_Surf-Slave_S4, internal, instance=AssemblyInstance-Ins4, generate
    1,  6397,     4
*Surface, type=ELEMENT, name=m_Surf-Slave
_m_Surf-Slave_S2, S2
_m_Surf-Slave_S4, S4
*End Assembly
** 
** MATERIALS
** 
*Material, name=Material-Con
*Density
1.,
*Elastic
 5e+11, 0.35
*Material, name=Material-Cow
*Density
1.,
*Elastic
 4.5e+11, 0.3
*Material, name=Material-Ins
*Density
1.,
*Elastic
 4e+11, 0.4
** 
** INTERACTION PROPERTIES
** 
*Surface Interaction, name=IntProp-1
1.,
*Friction
0.,
*Surface Behavior, pressure-overclosure=HARD
** 
** BOUNDARY CONDITIONS
** 
** Name: BC-1 Type: Displacement/Rotation
*Boundary
Set-Bc, 2, 2
** 
** INTERACTIONS
** 
** Interaction: Int-1
*Contact Pair, interaction=IntProp-1, type=SURFACE TO SURFACE
m_Surf-Slave, m_Surf-Master
** ----------------------------------------------------------------
** 
** STEP: Step-1-BodyForce
** 
*Step, name=Step-1-BodyForce, nlgeom=NO
Description-Step-1-Body-Force
*Static
0.05, 1., 1e-05, 1.
** 
** LOADS
** 
** Name: Load-1-BodyForce   Type: Body force Using Field: AnalyticalField-1-BodyForce
*Dload
AssemblyInstance-Con1.1, BR, 7.21992e+09
AssemblyInstance-Con1.2, BR, 7.07678e+09
AssemblyInstance-Con1.3, BR, 6.9335e+09
AssemblyInstance-Con1.4, BR, 6.7905e+09
AssemblyInstance-Con1.5, BR, 7.21992e+09
AssemblyInstance-Con1.6, BR, 7.07678e+09
AssemblyInstance-Con1.7, BR, 6.9335e+09
AssemblyInstance-Con1.8, BR, 6.7905e+09
AssemblyInstance-Con1.9, BR, 7.21992e+09
AssemblyInstance-Con1.10, BR, 7.07678e+09
AssemblyInstance-Con1.11, BR, 6.9335e+09
AssemblyInstance-Con1.12, BR, 6.7905e+09
AssemblyInstance-Con1.13, BR, 7.21992e+09
AssemblyInstance-Con1.14, BR, 7.07678e+09
AssemblyInstance-Con1.15, BR, 6.9335e+09
AssemblyInstance-Con1.16, BR, 6.7905e+09
AssemblyInstance-Con1.17, BR, 7.21992e+09
AssemblyInstance-Con1.18, BR, 7.07678e+09
AssemblyInstance-Con1.19, BR, 6.9335e+09
AssemblyInstance-Con1.20, BR, 6.7905e+09
** ... 1740 like lines cut
** 
** OUTPUT REQUESTS
** 
*Restart, write, frequency=0
** 
** FIELD OUTPUT: F-Output-1
** 
*Output, field, variable=PRESELECT
** 
** HISTORY OUTPUT: H-Output-1
** 
*Output, history, variable=PRESELECT
*End Step
