*Heading
** Job name: Job-1 Model name: Model-1
** Generated by: Abaqus/CAE 2020
*Preprint, echo=NO, model=NO, history=NO, contact=NO
**
** PARTS
**
*Part, name=Part-1
*End Part
**  
*Part, name=Part-2
*End Part
**  
**
** ASSEMBLY
**
*Assembly, name=Assembly
**  
*Instance, name=Part-1-1, part=Part-1
*Node
      1,  0.430000007,           0.
      2,  0.430003345,           0.
      3,  0.430006653,           0.
      4,  0.430009991,           0.
      5,  0.430013329,           0.
      6,  0.430016667,           0.
      7,  0.430020005,           0.
      8,  0.430023342,           0.
      9,   0.43002668,           0.
     10,  0.430029988,           0.
     11,  0.430033326,           0.
     12,  0.430036664,           0.
     13,  0.430040002,           0.
     14,   0.43004334,           0.
     15,  0.430046678,           0.
     16,  0.430049986,           0.
     17,  0.430053324,           0.
     18,  0.430056661,           0.
     19,  0.430059999,           0.
     20,  0.430063337,           0.
** ... 11117 like lines cut
*Element, type=CAX4R
    1,     1,     2,    39,    38
    2,     2,     3,    40,    39
    3,     3,     4,    41,    40
    4,     4,     5,    42,    41
    5,     5,     6,    43,    42
    6,     6,     7,    44,    43
    7,     7,     8,    45,    44
    8,     8,     9,    46,    45
    9,     9,    10,    47,    46
   10,    10,    11,    48,    47
   11,    11,    12,    49,    48
   12,    12,    13,    50,    49
   13,    13,    14,    51,    50
   14,    14,    15,    52,    51
   15,    15,    16,    53,    52
   16,    16,    17,    54,    53
   17,    17,    18,    55,    54
   18,    18,    19,    56,    55
   19,    19,    20,    57,    56
   20,    20,    21,    58,    57
** ... 10780 like lines cut
*Nset, nset=_PickedSet2, internal, generate
     1,  11137,      1
*Elset, elset=_PickedSet2, internal, generate
     1,  10800,      1
** Section: Section-1
*Solid Section, elset=_PickedSet2, material=Material-Con
,
*End Instance
**  
*Instance, name=Part-2-1, part=Part-2
*Node
      1,  0.430119991,           0.
      2,  0.430123329,           0.
      3,  0.430126667,           0.
      4,  0.430130005,           0.
      5,  0.430133343,           0.
      6,  0.430136681,           0.
      7,  0.430139989,           0.
      8,  0.430143327,           0.
      9,  0.430146664,           0.
     10,  0.430150002,           0.
     11,   0.43015334,           0.
     12,  0.430156678,           0.
     13,  0.430159986,           0.
     14,  0.430163324,           0.
     15,  0.430166662,           0.
     16,      0.43017,           0.
     17,  0.430173337,           0.
     18,  0.430176675,           0.
     19,  0.430180013,           0.
     20,  0.430183321,           0.
** ... 21050 like lines cut
*Element, type=CAX4R
    1,     1,     2,    72,    71
    2,     2,     3,    73,    72
    3,     3,     4,    74,    73
    4,     4,     5,    75,    74
    5,     5,     6,    76,    75
    6,     6,     7,    77,    76
    7,     7,     8,    78,    77
    8,     8,     9,    79,    78
    9,     9,    10,    80,    79
   10,    10,    11,    81,    80
   11,    11,    12,    82,    81
   12,    12,    13,    83,    82
   13,    13,    14,    84,    83
   14,    14,    15,    85,    84
   15,    15,    16,    86,    85
   16,    16,    17,    87,    86
   17,    17,    18,    88,    87
   18,    18,    19,    89,    88
   19,    19,    20,    90,    89
   20,    20,    21,    91,    90
** ... 20680 like lines cut
*Nset, nset=_PickedSet3, internal, generate
     1,  21070,      1
*Elset, elset=_PickedSet3, internal, generate
     1,  20700,      1
** Section: Section-2
*Solid Section, elset=_PickedSet3, material=Material-2
,
*End Instance
**  
*Nset, nset=_PickedSet6, internal, instance=Part-1-1, generate
     1,  11137,      1
*Elset, elset=_PickedSet6, internal, instance=Part-1-1, generate
     1,  10800,      1
*Nset, nset=_PickedSet20, internal, instance=Part-1-1
 1,
*Nset, nset=_PickedSet22, internal, instance=Part-1-1, generate
     1,  11101,     37
*Elset, elset=_PickedSet22, internal, instance=Part-1-1, generate
     1,  10765,     36
*Nset, nset=_PickedSet23, internal, instance=Part-1-1, generate
  1,  37,   1
*Elset, elset=_PickedSet23, internal, instance=Part-1-1, generate
  1,  36,   1
*Nset, nset=_PickedSet28, internal, instance=Part-2-1, generate
  1,  70,   1
*Elset, elset=_PickedSet28, internal, instance=Part-2-1, generate
  1,  69,   1
*Nset, nset=_PickedSet30, internal, instance=Part-1-1, generate
     1,  11137,      1
*Nset, nset=_PickedSet30, internal, instance=Part-2-1, generate
     1,  21070,      1
*Elset, elset=_PickedSet30, internal, instance=Part-1-1, generate
     1,  10800,      1
*Elset, elset=_PickedSet30, internal, instance=Part-2-1, generate
     1,  20700,      1
*Nset, nset=_PickedSet31, internal, instance=Part-1-1, generate
     1,  11137,      1
*Elset, elset=_PickedSet31, internal, instance=Part-1-1, generate
     1,  10800,      1
*Nset, nset=_PickedSet32, internal, instance=Part-2-1, generate
     1,  21070,      1
*Elset, elset=_PickedSet32, internal, instance=Part-2-1, generate
     1,  20700,      1
*Surface, type=NODE, name=_PickedSet31_CNS_, internal
_PickedSet31, 1.
*Surface, type=NODE, name=_PickedSet32_CNS_, internal
_PickedSet32, 1.
** Constraint: Constraint-1
*Tie, name=Constraint-1, adjust=yes
_PickedSet32_CNS_, _PickedSet31_CNS_
*End Assembly
** 
** MATERIALS
** 
*Material, name=Material-2
*Density
1.,
*Elastic
 4.5e+11, 0.3
*Material, name=Material-Con
*Density
1.,
*Elastic
 5e+11, 0.35
** 
** INTERACTION PROPERTIES
** 
*Surface Interaction, name=IntProp-1
1.,
*Friction, slip tolerance=0.005
 0.5,
*Surface Behavior, pressure-overclosure=HARD
** 
** BOUNDARY CONDITIONS
** 
** Name: y-direction Type: Displacement/Rotation
*Boundary
_PickedSet23, 2, 2
** Name: y-direction2 Type: Displacement/Rotation
*Boundary
_PickedSet28, 2, 2
** 
** INTERACTIONS
** 
** Interaction: Int-1
*Contact
*Contact Inclusions, ALL EXTERIOR
*Contact Property Assignment
 ,  , IntProp-1
** ----------------------------------------------------------------
** 
** STEP: Step-1
** 
*Step, name=Step-1, nlgeom=NO
*Static
1., 1., 1e-05, 1.
** 
** LOADS
** 
** Name: Load-2   Type: Body force Using Field: AnalyticalField-1
*Dload
Part-1-1.1, BR, 1.59879e+09
Part-1-1.2, BR, 1.59876e+09
Part-1-1.3, BR, 1.59873e+09
Part-1-1.4, BR, 1.5987e+09
Part-1-1.5, BR, 1.59867e+09
Part-1-1.6, BR, 1.59864e+09
Part-1-1.7, BR, 1.59861e+09
Part-1-1.8, BR, 1.59858e+09
Part-1-1.9, BR, 1.59855e+09
Part-1-1.10, BR, 1.59852e+09
Part-1-1.11, BR, 1.59849e+09
Part-1-1.12, BR, 1.59847e+09
Part-1-1.13, BR, 1.59844e+09
Part-1-1.14, BR, 1.59841e+09
Part-1-1.15, BR, 1.59838e+09
Part-1-1.16, BR, 1.59835e+09
Part-1-1.17, BR, 1.59832e+09
Part-1-1.18, BR, 1.59829e+09
Part-1-1.19, BR, 1.59826e+09
Part-1-1.20, BR, 1.59823e+09
** ... 31480 like lines cut
** 
** OUTPUT REQUESTS
** 
*Restart, write, frequency=0
** 
** FIELD OUTPUT: F-Output-1
** 
*Output, field, variable=PRESELECT
** 
** HISTORY OUTPUT: H-Output-1
** 
*Output, history, variable=PRESELECT
*End Step
