 Abaqus/Standard 2020                  DATE 11-Sep-2024 TIME 18:51:03
 SUMMARY OF JOB INFORMATION:
 STEP  INC ATT SEVERE EQUIL TOTAL  TOTAL      STEP       INC OF       DOF    IF
               DISCON ITERS ITERS  TIME/    TIME/LPF    TIME/LPF    MONITOR RIKS
               ITERS               FREQ
   1     1   1     5     1     6  1.00       1.00       1.000     
                          
 THE ANALYSIS HAS COMPLETED SUCCESSFULLY
