*Heading
** Job name: Job-1 Model name: Model-1
** Generated by: Abaqus/CAE 2020
*Preprint, echo=NO, model=NO, history=NO, contact=NO
**
** PARTS
**
*Part, name=Part-Con1
*End Part
**  
*Part, name=Part-Con2
*End Part
**  
*Part, name=Part-Con3
*End Part
**  
*Part, name=Part-Con4
*End Part
**  
*Part, name=Part-Con5
*End Part
**  
*Part, name=Part-Cow1
*End Part
**  
*Part, name=Part-Cow2
*End Part
**  
*Part, name=Part-Cow3
*End Part
**  
*Part, name=Part-Cow4
*End Part
**  
*Part, name=Part-Cow5
*End Part
**  
*Part, name=Part-Ins1
*End Part
**  
*Part, name=Part-Ins2
*End Part
**  
*Part, name=Part-Ins3
*End Part
**  
*Part, name=Part-Ins4
*End Part
**  
*Part, name=Part-Ins5
*End Part
**  
**
** ASSEMBLY
**
*Assembly, name=Assembly
**  
*Instance, name=AssemblyInstance-Con1, part=Part-Con1
*Node
      1,  0.430000007,           0.
      2,  0.430040002,           0.
      3,  0.430079997,           0.
      4,  0.430119991,           0.
      5,  0.430000007, 0.000199999995
      6,  0.430040002, 0.000199999995
      7,  0.430079997, 0.000199999995
      8,  0.430119991, 0.000199999995
      9,  0.430000007, 0.00039999999
     10,  0.430040002, 0.00039999999
     11,  0.430079997, 0.00039999999
     12,  0.430119991, 0.00039999999
     13,  0.430000007, 0.000600000028
     14,  0.430040002, 0.000600000028
     15,  0.430079997, 0.000600000028
     16,  0.430119991, 0.000600000028
     17,  0.430000007, 0.00079999998
     18,  0.430040002, 0.00079999998
     19,  0.430079997, 0.00079999998
     20,  0.430119991, 0.00079999998
** ... 64 like lines cut
*Element, type=CAX4R
 1,  1,  2,  6,  5
 2,  2,  3,  7,  6
 3,  3,  4,  8,  7
 4,  5,  6, 10,  9
 5,  6,  7, 11, 10
 6,  7,  8, 12, 11
 7,  9, 10, 14, 13
 8, 10, 11, 15, 14
 9, 11, 12, 16, 15
10, 13, 14, 18, 17
11, 14, 15, 19, 18
12, 15, 16, 20, 19
13, 17, 18, 22, 21
14, 18, 19, 23, 22
15, 19, 20, 24, 23
16, 21, 22, 26, 25
17, 22, 23, 27, 26
18, 23, 24, 28, 27
19, 25, 26, 30, 29
20, 26, 27, 31, 30
** ... 40 like lines cut
*Nset, nset=_PickedSet2, internal, generate
  1,  84,   1
*Elset, elset=_PickedSet2, internal, generate
  1,  60,   1
** Section: Section-Con
*Solid Section, elset=_PickedSet2, material=Material-Con
,
*End Instance
**  
*Instance, name=AssemblyInstanceCow1, part=Part-Cow1
*Node
      1,  0.430119991,           0.
      2,  0.430196673,           0.
      3,  0.430273324,           0.
      4,  0.430350006,           0.
      5,  0.430119991, 0.000235294123
      6,  0.430196673, 0.000235294123
      7,  0.430273324, 0.000235294123
      8,  0.430350006, 0.000235294123
      9,  0.430119991, 0.000470588246
     10,  0.430196673, 0.000470588246
     11,  0.430273324, 0.000470588246
     12,  0.430350006, 0.000470588246
     13,  0.430119991, 0.000705882325
     14,  0.430196673, 0.000705882325
     15,  0.430273324, 0.000705882325
     16,  0.430350006, 0.000705882325
     17,  0.430119991, 0.000941176491
     18,  0.430196673, 0.000941176491
     19,  0.430273324, 0.000941176491
     20,  0.430350006, 0.000941176491
** ... 52 like lines cut
*Element, type=CAX4R
 1,  1,  2,  6,  5
 2,  2,  3,  7,  6
 3,  3,  4,  8,  7
 4,  5,  6, 10,  9
 5,  6,  7, 11, 10
 6,  7,  8, 12, 11
 7,  9, 10, 14, 13
 8, 10, 11, 15, 14
 9, 11, 12, 16, 15
10, 13, 14, 18, 17
11, 14, 15, 19, 18
12, 15, 16, 20, 19
13, 17, 18, 22, 21
14, 18, 19, 23, 22
15, 19, 20, 24, 23
16, 21, 22, 26, 25
17, 22, 23, 27, 26
18, 23, 24, 28, 27
19, 25, 26, 30, 29
20, 26, 27, 31, 30
** ... 31 like lines cut
*Nset, nset=_PickedSet2, internal, generate
  1,  72,   1
*Elset, elset=_PickedSet2, internal, generate
  1,  51,   1
** Section: Section-Cow
*Solid Section, elset=_PickedSet2, material=Material-Cow
,
*End Instance
**  
*Instance, name=AssemblyInstanceIns1, part=Part-Ins1
*Node
      1,  0.430350006,           0.
      2,  0.430353343,           0.
      3,  0.430356681,           0.
      4,  0.430359989,           0.
      5,  0.430350006, 0.000199999995
      6,  0.430353343, 0.000199999995
      7,  0.430356681, 0.000199999995
      8,  0.430359989, 0.000199999995
      9,  0.430350006, 0.00039999999
     10,  0.430353343, 0.00039999999
     11,  0.430356681, 0.00039999999
     12,  0.430359989, 0.00039999999
     13,  0.430350006, 0.000600000028
     14,  0.430353343, 0.000600000028
     15,  0.430356681, 0.000600000028
     16,  0.430359989, 0.000600000028
     17,  0.430350006, 0.00079999998
     18,  0.430353343, 0.00079999998
     19,  0.430356681, 0.00079999998
     20,  0.430359989, 0.00079999998
** ... 64 like lines cut
*Element, type=CAX4R
 1,  1,  2,  6,  5
 2,  2,  3,  7,  6
 3,  3,  4,  8,  7
 4,  5,  6, 10,  9
 5,  6,  7, 11, 10
 6,  7,  8, 12, 11
 7,  9, 10, 14, 13
 8, 10, 11, 15, 14
 9, 11, 12, 16, 15
10, 13, 14, 18, 17
11, 14, 15, 19, 18
12, 15, 16, 20, 19
13, 17, 18, 22, 21
14, 18, 19, 23, 22
15, 19, 20, 24, 23
16, 21, 22, 26, 25
17, 22, 23, 27, 26
18, 23, 24, 28, 27
19, 25, 26, 30, 29
20, 26, 27, 31, 30
** ... 40 like lines cut
*Nset, nset=_PickedSet2, internal, generate
  1,  84,   1
*Elset, elset=_PickedSet2, internal, generate
  1,  60,   1
** Section: Section-Ins
*Solid Section, elset=_PickedSet2, material=Material-Ins
,
*End Instance
**  
*Instance, name=AssemblyInstanceCon2, part=Part-Con2
*Node
      1,  0.430359989,           0.
      2,  0.430400014,           0.
      3,  0.430440009,           0.
      4,  0.430480003,           0.
      5,  0.430359989, 0.000199999995
      6,  0.430400014, 0.000199999995
      7,  0.430440009, 0.000199999995
      8,  0.430480003, 0.000199999995
      9,  0.430359989, 0.00039999999
     10,  0.430400014, 0.00039999999
     11,  0.430440009, 0.00039999999
     12,  0.430480003, 0.00039999999
     13,  0.430359989, 0.000600000028
     14,  0.430400014, 0.000600000028
     15,  0.430440009, 0.000600000028
     16,  0.430480003, 0.000600000028
     17,  0.430359989, 0.00079999998
     18,  0.430400014, 0.00079999998
     19,  0.430440009, 0.00079999998
     20,  0.430480003, 0.00079999998
** ... 64 like lines cut
*Element, type=CAX4R
 1,  1,  2,  6,  5
 2,  2,  3,  7,  6
 3,  3,  4,  8,  7
 4,  5,  6, 10,  9
 5,  6,  7, 11, 10
 6,  7,  8, 12, 11
 7,  9, 10, 14, 13
 8, 10, 11, 15, 14
 9, 11, 12, 16, 15
10, 13, 14, 18, 17
11, 14, 15, 19, 18
12, 15, 16, 20, 19
13, 17, 18, 22, 21
14, 18, 19, 23, 22
15, 19, 20, 24, 23
16, 21, 22, 26, 25
17, 22, 23, 27, 26
18, 23, 24, 28, 27
19, 25, 26, 30, 29
20, 26, 27, 31, 30
** ... 40 like lines cut
*Nset, nset=_PickedSet2, internal, generate
  1,  84,   1
*Elset, elset=_PickedSet2, internal, generate
  1,  60,   1
** Section: Section-Con
*Solid Section, elset=_PickedSet2, material=Material-Con
,
*End Instance
**  
*Instance, name=AssemblyInstanceCow2, part=Part-Cow2
*Node
      1,  0.430480003,           0.
      2,  0.430556655,           0.
      3,  0.430633336,           0.
      4,  0.430709988,           0.
      5,  0.430480003, 0.000235294123
      6,  0.430556655, 0.000235294123
      7,  0.430633336, 0.000235294123
      8,  0.430709988, 0.000235294123
      9,  0.430480003, 0.000470588246
     10,  0.430556655, 0.000470588246
     11,  0.430633336, 0.000470588246
     12,  0.430709988, 0.000470588246
     13,  0.430480003, 0.000705882325
     14,  0.430556655, 0.000705882325
     15,  0.430633336, 0.000705882325
     16,  0.430709988, 0.000705882325
     17,  0.430480003, 0.000941176491
     18,  0.430556655, 0.000941176491
     19,  0.430633336, 0.000941176491
     20,  0.430709988, 0.000941176491
** ... 52 like lines cut
*Element, type=CAX4R
 1,  1,  2,  6,  5
 2,  2,  3,  7,  6
 3,  3,  4,  8,  7
 4,  5,  6, 10,  9
 5,  6,  7, 11, 10
 6,  7,  8, 12, 11
 7,  9, 10, 14, 13
 8, 10, 11, 15, 14
 9, 11, 12, 16, 15
10, 13, 14, 18, 17
11, 14, 15, 19, 18
12, 15, 16, 20, 19
13, 17, 18, 22, 21
14, 18, 19, 23, 22
15, 19, 20, 24, 23
16, 21, 22, 26, 25
17, 22, 23, 27, 26
18, 23, 24, 28, 27
19, 25, 26, 30, 29
20, 26, 27, 31, 30
** ... 31 like lines cut
*Nset, nset=_PickedSet2, internal, generate
  1,  72,   1
*Elset, elset=_PickedSet2, internal, generate
  1,  51,   1
** Section: Section-Cow
*Solid Section, elset=_PickedSet2, material=Material-Cow
,
*End Instance
**  
*Instance, name=AssemblyInstanceIns2, part=Part-Ins2
*Node
      1,  0.430709988,           0.
      2,  0.430713326,           0.
      3,  0.430716664,           0.
      4,  0.430720001,           0.
      5,  0.430709988, 0.000199999995
      6,  0.430713326, 0.000199999995
      7,  0.430716664, 0.000199999995
      8,  0.430720001, 0.000199999995
      9,  0.430709988, 0.00039999999
     10,  0.430713326, 0.00039999999
     11,  0.430716664, 0.00039999999
     12,  0.430720001, 0.00039999999
     13,  0.430709988, 0.000600000028
     14,  0.430713326, 0.000600000028
     15,  0.430716664, 0.000600000028
     16,  0.430720001, 0.000600000028
     17,  0.430709988, 0.00079999998
     18,  0.430713326, 0.00079999998
     19,  0.430716664, 0.00079999998
     20,  0.430720001, 0.00079999998
** ... 64 like lines cut
*Element, type=CAX4R
 1,  1,  2,  6,  5
 2,  2,  3,  7,  6
 3,  3,  4,  8,  7
 4,  5,  6, 10,  9
 5,  6,  7, 11, 10
 6,  7,  8, 12, 11
 7,  9, 10, 14, 13
 8, 10, 11, 15, 14
 9, 11, 12, 16, 15
10, 13, 14, 18, 17
11, 14, 15, 19, 18
12, 15, 16, 20, 19
13, 17, 18, 22, 21
14, 18, 19, 23, 22
15, 19, 20, 24, 23
16, 21, 22, 26, 25
17, 22, 23, 27, 26
18, 23, 24, 28, 27
19, 25, 26, 30, 29
20, 26, 27, 31, 30
** ... 40 like lines cut
*Nset, nset=_PickedSet2, internal, generate
  1,  84,   1
*Elset, elset=_PickedSet2, internal, generate
  1,  60,   1
** Section: Section-Ins
*Solid Section, elset=_PickedSet2, material=Material-Ins
,
*End Instance
**  
*Instance, name=AssemblyInstanceCon3, part=Part-Con3
*Node
      1,  0.430720001,           0.
      2,  0.430759996,           0.
      3,  0.430799991,           0.
      4,  0.430839986,           0.
      5,  0.430720001, 0.000199999995
      6,  0.430759996, 0.000199999995
      7,  0.430799991, 0.000199999995
      8,  0.430839986, 0.000199999995
      9,  0.430720001, 0.00039999999
     10,  0.430759996, 0.00039999999
     11,  0.430799991, 0.00039999999
     12,  0.430839986, 0.00039999999
     13,  0.430720001, 0.000600000028
     14,  0.430759996, 0.000600000028
     15,  0.430799991, 0.000600000028
     16,  0.430839986, 0.000600000028
     17,  0.430720001, 0.00079999998
     18,  0.430759996, 0.00079999998
     19,  0.430799991, 0.00079999998
     20,  0.430839986, 0.00079999998
** ... 64 like lines cut
*Element, type=CAX4R
 1,  1,  2,  6,  5
 2,  2,  3,  7,  6
 3,  3,  4,  8,  7
 4,  5,  6, 10,  9
 5,  6,  7, 11, 10
 6,  7,  8, 12, 11
 7,  9, 10, 14, 13
 8, 10, 11, 15, 14
 9, 11, 12, 16, 15
10, 13, 14, 18, 17
11, 14, 15, 19, 18
12, 15, 16, 20, 19
13, 17, 18, 22, 21
14, 18, 19, 23, 22
15, 19, 20, 24, 23
16, 21, 22, 26, 25
17, 22, 23, 27, 26
18, 23, 24, 28, 27
19, 25, 26, 30, 29
20, 26, 27, 31, 30
** ... 40 like lines cut
*Nset, nset=_PickedSet2, internal, generate
  1,  84,   1
*Elset, elset=_PickedSet2, internal, generate
  1,  60,   1
** Section: Section-Con
*Solid Section, elset=_PickedSet2, material=Material-Con
,
*End Instance
**  
*Instance, name=AssemblyInstanceCow3, part=Part-Cow3
*Node
      1,  0.430839986,           0.
      2,  0.430916667,           0.
      3,  0.430993319,           0.
      4,      0.43107,           0.
      5,  0.430839986, 0.000235294123
      6,  0.430916667, 0.000235294123
      7,  0.430993319, 0.000235294123
      8,      0.43107, 0.000235294123
      9,  0.430839986, 0.000470588246
     10,  0.430916667, 0.000470588246
     11,  0.430993319, 0.000470588246
     12,      0.43107, 0.000470588246
     13,  0.430839986, 0.000705882325
     14,  0.430916667, 0.000705882325
     15,  0.430993319, 0.000705882325
     16,      0.43107, 0.000705882325
     17,  0.430839986, 0.000941176491
     18,  0.430916667, 0.000941176491
     19,  0.430993319, 0.000941176491
     20,      0.43107, 0.000941176491
** ... 52 like lines cut
*Element, type=CAX4R
 1,  1,  2,  6,  5
 2,  2,  3,  7,  6
 3,  3,  4,  8,  7
 4,  5,  6, 10,  9
 5,  6,  7, 11, 10
 6,  7,  8, 12, 11
 7,  9, 10, 14, 13
 8, 10, 11, 15, 14
 9, 11, 12, 16, 15
10, 13, 14, 18, 17
11, 14, 15, 19, 18
12, 15, 16, 20, 19
13, 17, 18, 22, 21
14, 18, 19, 23, 22
15, 19, 20, 24, 23
16, 21, 22, 26, 25
17, 22, 23, 27, 26
18, 23, 24, 28, 27
19, 25, 26, 30, 29
20, 26, 27, 31, 30
** ... 31 like lines cut
*Nset, nset=_PickedSet2, internal, generate
  1,  72,   1
*Elset, elset=_PickedSet2, internal, generate
  1,  51,   1
** Section: Section-Cow
*Solid Section, elset=_PickedSet2, material=Material-Cow
,
*End Instance
**  
*Instance, name=AssemblyInstanceIns3, part=Part-Ins3
*Node
      1,      0.43107,           0.
      2,  0.431080014,           0.
      3,      0.43107, 0.000199999995
      4,  0.431080014, 0.000199999995
      5,      0.43107, 0.00039999999
      6,  0.431080014, 0.00039999999
      7,      0.43107, 0.000600000028
      8,  0.431080014, 0.000600000028
      9,      0.43107, 0.00079999998
     10,  0.431080014, 0.00079999998
     11,      0.43107, 0.00100000005
     12,  0.431080014, 0.00100000005
     13,      0.43107, 0.00120000006
     14,  0.431080014, 0.00120000006
     15,      0.43107, 0.00139999995
     16,  0.431080014, 0.00139999995
     17,      0.43107, 0.00159999996
     18,  0.431080014, 0.00159999996
     19,      0.43107, 0.00179999997
     20,  0.431080014, 0.00179999997
** ... 22 like lines cut
*Element, type=CAX4R
 1,  1,  2,  4,  3
 2,  3,  4,  6,  5
 3,  5,  6,  8,  7
 4,  7,  8, 10,  9
 5,  9, 10, 12, 11
 6, 11, 12, 14, 13
 7, 13, 14, 16, 15
 8, 15, 16, 18, 17
 9, 17, 18, 20, 19
10, 19, 20, 22, 21
11, 21, 22, 24, 23
12, 23, 24, 26, 25
13, 25, 26, 28, 27
14, 27, 28, 30, 29
15, 29, 30, 32, 31
16, 31, 32, 34, 33
17, 33, 34, 36, 35
18, 35, 36, 38, 37
19, 37, 38, 40, 39
20, 39, 40, 42, 41
*Nset, nset=_PickedSet2, internal, generate
  1,  42,   1
*Elset, elset=_PickedSet2, internal, generate
  1,  20,   1
** Section: Section-Ins
*Solid Section, elset=_PickedSet2, material=Material-Ins
,
*End Instance
**  
*Instance, name=AssemblyInstanceCon4, part=Part-Con4
*Node
      1,  0.431080014,           0.
      2,  0.431120008,           0.
      3,  0.431160003,           0.
      4,  0.431199998,           0.
      5,  0.431080014, 0.000199999995
      6,  0.431120008, 0.000199999995
      7,  0.431160003, 0.000199999995
      8,  0.431199998, 0.000199999995
      9,  0.431080014, 0.00039999999
     10,  0.431120008, 0.00039999999
     11,  0.431160003, 0.00039999999
     12,  0.431199998, 0.00039999999
     13,  0.431080014, 0.000600000028
     14,  0.431120008, 0.000600000028
     15,  0.431160003, 0.000600000028
     16,  0.431199998, 0.000600000028
     17,  0.431080014, 0.00079999998
     18,  0.431120008, 0.00079999998
     19,  0.431160003, 0.00079999998
     20,  0.431199998, 0.00079999998
** ... 64 like lines cut
*Element, type=CAX4R
 1,  1,  2,  6,  5
 2,  2,  3,  7,  6
 3,  3,  4,  8,  7
 4,  5,  6, 10,  9
 5,  6,  7, 11, 10
 6,  7,  8, 12, 11
 7,  9, 10, 14, 13
 8, 10, 11, 15, 14
 9, 11, 12, 16, 15
10, 13, 14, 18, 17
11, 14, 15, 19, 18
12, 15, 16, 20, 19
13, 17, 18, 22, 21
14, 18, 19, 23, 22
15, 19, 20, 24, 23
16, 21, 22, 26, 25
17, 22, 23, 27, 26
18, 23, 24, 28, 27
19, 25, 26, 30, 29
20, 26, 27, 31, 30
** ... 40 like lines cut
*Nset, nset=_PickedSet2, internal, generate
  1,  84,   1
*Elset, elset=_PickedSet2, internal, generate
  1,  60,   1
** Section: Section-Con
*Solid Section, elset=_PickedSet2, material=Material-Con
,
*End Instance
**  
*Instance, name=AssemblyInstanceCow4, part=Part-Cow4
*Node
      1,  0.431199998,           0.
      2,  0.431276679,           0.
      3,  0.431353331,           0.
      4,  0.431430012,           0.
      5,  0.431199998, 0.000235294123
      6,  0.431276679, 0.000235294123
      7,  0.431353331, 0.000235294123
      8,  0.431430012, 0.000235294123
      9,  0.431199998, 0.000470588246
     10,  0.431276679, 0.000470588246
     11,  0.431353331, 0.000470588246
     12,  0.431430012, 0.000470588246
     13,  0.431199998, 0.000705882325
     14,  0.431276679, 0.000705882325
     15,  0.431353331, 0.000705882325
     16,  0.431430012, 0.000705882325
     17,  0.431199998, 0.000941176491
     18,  0.431276679, 0.000941176491
     19,  0.431353331, 0.000941176491
     20,  0.431430012, 0.000941176491
** ... 52 like lines cut
*Element, type=CAX4R
 1,  1,  2,  6,  5
 2,  2,  3,  7,  6
 3,  3,  4,  8,  7
 4,  5,  6, 10,  9
 5,  6,  7, 11, 10
 6,  7,  8, 12, 11
 7,  9, 10, 14, 13
 8, 10, 11, 15, 14
 9, 11, 12, 16, 15
10, 13, 14, 18, 17
11, 14, 15, 19, 18
12, 15, 16, 20, 19
13, 17, 18, 22, 21
14, 18, 19, 23, 22
15, 19, 20, 24, 23
16, 21, 22, 26, 25
17, 22, 23, 27, 26
18, 23, 24, 28, 27
19, 25, 26, 30, 29
20, 26, 27, 31, 30
** ... 31 like lines cut
*Nset, nset=_PickedSet2, internal, generate
  1,  72,   1
*Elset, elset=_PickedSet2, internal, generate
  1,  51,   1
** Section: Section-Cow
*Solid Section, elset=_PickedSet2, material=Material-Cow
,
*End Instance
**  
*Instance, name=AssemblyInstanceIns4, part=Part-Ins4
*Node
      1,  0.431430012,           0.
      2,  0.431439996,           0.
      3,  0.431430012, 0.000199999995
      4,  0.431439996, 0.000199999995
      5,  0.431430012, 0.00039999999
      6,  0.431439996, 0.00039999999
      7,  0.431430012, 0.000600000028
      8,  0.431439996, 0.000600000028
      9,  0.431430012, 0.00079999998
     10,  0.431439996, 0.00079999998
     11,  0.431430012, 0.00100000005
     12,  0.431439996, 0.00100000005
     13,  0.431430012, 0.00120000006
     14,  0.431439996, 0.00120000006
     15,  0.431430012, 0.00139999995
     16,  0.431439996, 0.00139999995
     17,  0.431430012, 0.00159999996
     18,  0.431439996, 0.00159999996
     19,  0.431430012, 0.00179999997
     20,  0.431439996, 0.00179999997
** ... 22 like lines cut
*Element, type=CAX4R
 1,  1,  2,  4,  3
 2,  3,  4,  6,  5
 3,  5,  6,  8,  7
 4,  7,  8, 10,  9
 5,  9, 10, 12, 11
 6, 11, 12, 14, 13
 7, 13, 14, 16, 15
 8, 15, 16, 18, 17
 9, 17, 18, 20, 19
10, 19, 20, 22, 21
11, 21, 22, 24, 23
12, 23, 24, 26, 25
13, 25, 26, 28, 27
14, 27, 28, 30, 29
15, 29, 30, 32, 31
16, 31, 32, 34, 33
17, 33, 34, 36, 35
18, 35, 36, 38, 37
19, 37, 38, 40, 39
20, 39, 40, 42, 41
*Nset, nset=_PickedSet2, internal, generate
  1,  42,   1
*Elset, elset=_PickedSet2, internal, generate
  1,  20,   1
** Section: Section-Ins
*Solid Section, elset=_PickedSet2, material=Material-Ins
,
*End Instance
**  
*Instance, name=AssemblyInstanceCon5, part=Part-Con5
*Node
      1,  0.431439996,           0.
      2,   0.43147999,           0.
      3,  0.431519985,           0.
      4,   0.43156001,           0.
      5,  0.431439996, 0.000199999995
      6,   0.43147999, 0.000199999995
      7,  0.431519985, 0.000199999995
      8,   0.43156001, 0.000199999995
      9,  0.431439996, 0.00039999999
     10,   0.43147999, 0.00039999999
     11,  0.431519985, 0.00039999999
     12,   0.43156001, 0.00039999999
     13,  0.431439996, 0.000600000028
     14,   0.43147999, 0.000600000028
     15,  0.431519985, 0.000600000028
     16,   0.43156001, 0.000600000028
     17,  0.431439996, 0.00079999998
     18,   0.43147999, 0.00079999998
     19,  0.431519985, 0.00079999998
     20,   0.43156001, 0.00079999998
** ... 64 like lines cut
*Element, type=CAX4R
 1,  1,  2,  6,  5
 2,  2,  3,  7,  6
 3,  3,  4,  8,  7
 4,  5,  6, 10,  9
 5,  6,  7, 11, 10
 6,  7,  8, 12, 11
 7,  9, 10, 14, 13
 8, 10, 11, 15, 14
 9, 11, 12, 16, 15
10, 13, 14, 18, 17
11, 14, 15, 19, 18
12, 15, 16, 20, 19
13, 17, 18, 22, 21
14, 18, 19, 23, 22
15, 19, 20, 24, 23
16, 21, 22, 26, 25
17, 22, 23, 27, 26
18, 23, 24, 28, 27
19, 25, 26, 30, 29
20, 26, 27, 31, 30
** ... 40 like lines cut
*Nset, nset=_PickedSet2, internal, generate
  1,  84,   1
*Elset, elset=_PickedSet2, internal, generate
  1,  60,   1
** Section: Section-Con
*Solid Section, elset=_PickedSet2, material=Material-Con
,
*End Instance
**  
*Instance, name=AssemblyInstanceCow5, part=Part-Cow5
*Node
      1,   0.43156001,           0.
      2,  0.431636661,           0.
      3,  0.431713343,           0.
      4,  0.431789994,           0.
      5,   0.43156001, 0.000235294123
      6,  0.431636661, 0.000235294123
      7,  0.431713343, 0.000235294123
      8,  0.431789994, 0.000235294123
      9,   0.43156001, 0.000470588246
     10,  0.431636661, 0.000470588246
     11,  0.431713343, 0.000470588246
     12,  0.431789994, 0.000470588246
     13,   0.43156001, 0.000705882325
     14,  0.431636661, 0.000705882325
     15,  0.431713343, 0.000705882325
     16,  0.431789994, 0.000705882325
     17,   0.43156001, 0.000941176491
     18,  0.431636661, 0.000941176491
     19,  0.431713343, 0.000941176491
     20,  0.431789994, 0.000941176491
** ... 52 like lines cut
*Element, type=CAX4R
 1,  1,  2,  6,  5
 2,  2,  3,  7,  6
 3,  3,  4,  8,  7
 4,  5,  6, 10,  9
 5,  6,  7, 11, 10
 6,  7,  8, 12, 11
 7,  9, 10, 14, 13
 8, 10, 11, 15, 14
 9, 11, 12, 16, 15
10, 13, 14, 18, 17
11, 14, 15, 19, 18
12, 15, 16, 20, 19
13, 17, 18, 22, 21
14, 18, 19, 23, 22
15, 19, 20, 24, 23
16, 21, 22, 26, 25
17, 22, 23, 27, 26
18, 23, 24, 28, 27
19, 25, 26, 30, 29
20, 26, 27, 31, 30
** ... 31 like lines cut
*Nset, nset=_PickedSet2, internal, generate
  1,  72,   1
*Elset, elset=_PickedSet2, internal, generate
  1,  51,   1
** Section: Section-Cow
*Solid Section, elset=_PickedSet2, material=Material-Cow
,
*End Instance
**  
*Instance, name=AssemblyInstanceIns5, part=Part-Ins5
*Node
      1,  0.431789994,           0.
      2,  0.431800008,           0.
      3,  0.431789994, 0.000199999995
      4,  0.431800008, 0.000199999995
      5,  0.431789994, 0.00039999999
      6,  0.431800008, 0.00039999999
      7,  0.431789994, 0.000600000028
      8,  0.431800008, 0.000600000028
      9,  0.431789994, 0.00079999998
     10,  0.431800008, 0.00079999998
     11,  0.431789994, 0.00100000005
     12,  0.431800008, 0.00100000005
     13,  0.431789994, 0.00120000006
     14,  0.431800008, 0.00120000006
     15,  0.431789994, 0.00139999995
     16,  0.431800008, 0.00139999995
     17,  0.431789994, 0.00159999996
     18,  0.431800008, 0.00159999996
     19,  0.431789994, 0.00179999997
     20,  0.431800008, 0.00179999997
** ... 22 like lines cut
*Element, type=CAX4R
 1,  1,  2,  4,  3
 2,  3,  4,  6,  5
 3,  5,  6,  8,  7
 4,  7,  8, 10,  9
 5,  9, 10, 12, 11
 6, 11, 12, 14, 13
 7, 13, 14, 16, 15
 8, 15, 16, 18, 17
 9, 17, 18, 20, 19
10, 19, 20, 22, 21
11, 21, 22, 24, 23
12, 23, 24, 26, 25
13, 25, 26, 28, 27
14, 27, 28, 30, 29
15, 29, 30, 32, 31
16, 31, 32, 34, 33
17, 33, 34, 36, 35
18, 35, 36, 38, 37
19, 37, 38, 40, 39
20, 39, 40, 42, 41
*Nset, nset=_PickedSet2, internal, generate
  1,  42,   1
*Elset, elset=_PickedSet2, internal, generate
  1,  20,   1
** Section: Section-Ins
*Solid Section, elset=_PickedSet2, material=Material-Ins
,
*End Instance
**  
*Nset, nset=Set-Bc, instance=AssemblyInstance-Con1, generate
 1,  4,  1
*Nset, nset=Set-Bc, instance=AssemblyInstanceCow1, generate
 1,  4,  1
*Nset, nset=Set-Bc, instance=AssemblyInstanceIns1, generate
 1,  4,  1
*Nset, nset=Set-Bc, instance=AssemblyInstanceCow2, generate
 1,  4,  1
*Nset, nset=Set-Bc, instance=AssemblyInstanceIns3
 1, 2
*Nset, nset=Set-Bc, instance=AssemblyInstanceCon5, generate
 1,  4,  1
*Nset, nset=Set-Bc, instance=AssemblyInstanceCon3, generate
 1,  4,  1
*Nset, nset=Set-Bc, instance=AssemblyInstanceCow4, generate
 1,  4,  1
*Nset, nset=Set-Bc, instance=AssemblyInstanceIns5
 1, 2
*Nset, nset=Set-Bc, instance=AssemblyInstanceCon2, generate
 1,  4,  1
*Nset, nset=Set-Bc, instance=AssemblyInstanceIns2, generate
 1,  4,  1
*Nset, nset=Set-Bc, instance=AssemblyInstanceCon4, generate
 1,  4,  1
*Nset, nset=Set-Bc, instance=AssemblyInstanceCow5, generate
 1,  4,  1
*Nset, nset=Set-Bc, instance=AssemblyInstanceCow3, generate
 1,  4,  1
*Nset, nset=Set-Bc, instance=AssemblyInstanceIns4
 1, 2
*Elset, elset=Set-Bc, instance=AssemblyInstance-Con1, generate
 1,  3,  1
*Elset, elset=Set-Bc, instance=AssemblyInstanceCow1, generate
 1,  3,  1
*Elset, elset=Set-Bc, instance=AssemblyInstanceIns1, generate
 1,  3,  1
*Elset, elset=Set-Bc, instance=AssemblyInstanceCow2, generate
 1,  3,  1
*Elset, elset=Set-Bc, instance=AssemblyInstanceIns3
 1,
*Elset, elset=Set-Bc, instance=AssemblyInstanceCon5, generate
 1,  3,  1
*Elset, elset=Set-Bc, instance=AssemblyInstanceCon3, generate
 1,  3,  1
*Elset, elset=Set-Bc, instance=AssemblyInstanceCow4, generate
 1,  3,  1
*Elset, elset=Set-Bc, instance=AssemblyInstanceIns5
 1,
*Elset, elset=Set-Bc, instance=AssemblyInstanceCon2, generate
 1,  3,  1
*Elset, elset=Set-Bc, instance=AssemblyInstanceIns2, generate
 1,  3,  1
*Elset, elset=Set-Bc, instance=AssemblyInstanceCon4, generate
 1,  3,  1
*Elset, elset=Set-Bc, instance=AssemblyInstanceCow5, generate
 1,  3,  1
*Elset, elset=Set-Bc, instance=AssemblyInstanceCow3, generate
 1,  3,  1
*Elset, elset=Set-Bc, instance=AssemblyInstanceIns4
 1,
*Nset, nset=Set-BodyForce, instance=AssemblyInstance-Con1, generate
  1,  84,   1
*Nset, nset=Set-BodyForce, instance=AssemblyInstanceCow1, generate
  1,  72,   1
*Nset, nset=Set-BodyForce, instance=AssemblyInstanceIns1, generate
  1,  84,   1
*Nset, nset=Set-BodyForce, instance=AssemblyInstanceCow2, generate
  1,  72,   1
*Nset, nset=Set-BodyForce, instance=AssemblyInstanceIns3, generate
  1,  42,   1
*Nset, nset=Set-BodyForce, instance=AssemblyInstanceCon5, generate
  1,  84,   1
*Nset, nset=Set-BodyForce, instance=AssemblyInstanceCon3, generate
  1,  84,   1
*Nset, nset=Set-BodyForce, instance=AssemblyInstanceCow4, generate
  1,  72,   1
*Nset, nset=Set-BodyForce, instance=AssemblyInstanceIns5, generate
  1,  42,   1
*Nset, nset=Set-BodyForce, instance=AssemblyInstanceCon2, generate
  1,  84,   1
*Nset, nset=Set-BodyForce, instance=AssemblyInstanceIns2, generate
  1,  84,   1
*Nset, nset=Set-BodyForce, instance=AssemblyInstanceCon4, generate
  1,  84,   1
*Nset, nset=Set-BodyForce, instance=AssemblyInstanceCow5, generate
  1,  72,   1
*Nset, nset=Set-BodyForce, instance=AssemblyInstanceCow3, generate
  1,  72,   1
*Nset, nset=Set-BodyForce, instance=AssemblyInstanceIns4, generate
  1,  42,   1
*Elset, elset=Set-BodyForce, instance=AssemblyInstance-Con1, generate
  1,  60,   1
*Elset, elset=Set-BodyForce, instance=AssemblyInstanceCow1, generate
  1,  51,   1
*Elset, elset=Set-BodyForce, instance=AssemblyInstanceIns1, generate
  1,  60,   1
*Elset, elset=Set-BodyForce, instance=AssemblyInstanceCow2, generate
  1,  51,   1
*Elset, elset=Set-BodyForce, instance=AssemblyInstanceIns3, generate
  1,  20,   1
*Elset, elset=Set-BodyForce, instance=AssemblyInstanceCon5, generate
  1,  60,   1
*Elset, elset=Set-BodyForce, instance=AssemblyInstanceCon3, generate
  1,  60,   1
*Elset, elset=Set-BodyForce, instance=AssemblyInstanceCow4, generate
  1,  51,   1
*Elset, elset=Set-BodyForce, instance=AssemblyInstanceIns5, generate
  1,  20,   1
*Elset, elset=Set-BodyForce, instance=AssemblyInstanceCon2, generate
  1,  60,   1
*Elset, elset=Set-BodyForce, instance=AssemblyInstanceIns2, generate
  1,  60,   1
*Elset, elset=Set-BodyForce, instance=AssemblyInstanceCon4, generate
  1,  60,   1
*Elset, elset=Set-BodyForce, instance=AssemblyInstanceCow5, generate
  1,  51,   1
*Elset, elset=Set-BodyForce, instance=AssemblyInstanceCow3, generate
  1,  51,   1
*Elset, elset=Set-BodyForce, instance=AssemblyInstanceIns4, generate
  1,  20,   1
*Elset, elset=_m_Surf-Master_S4, internal, instance=AssemblyInstance-Con1, generate
  1,  58,   3
*Elset, elset=_m_Surf-Master_S4, internal, instance=AssemblyInstanceCow1, generate
  1,  49,   3
*Elset, elset=_m_Surf-Master_S4, internal, instance=AssemblyInstanceCow2, generate
  1,  49,   3
*Elset, elset=_m_Surf-Master_S4, internal, instance=AssemblyInstanceCon5, generate
  1,  58,   3
*Elset, elset=_m_Surf-Master_S4, internal, instance=AssemblyInstanceCon3, generate
  1,  58,   3
*Elset, elset=_m_Surf-Master_S4, internal, instance=AssemblyInstanceCow4, generate
  1,  49,   3
*Elset, elset=_m_Surf-Master_S4, internal, instance=AssemblyInstanceCon2, generate
  1,  58,   3
*Elset, elset=_m_Surf-Master_S4, internal, instance=AssemblyInstanceCon4, generate
  1,  58,   3
*Elset, elset=_m_Surf-Master_S4, internal, instance=AssemblyInstanceCow5, generate
  1,  49,   3
*Elset, elset=_m_Surf-Master_S4, internal, instance=AssemblyInstanceCow3, generate
  1,  49,   3
*Elset, elset=_m_Surf-Master_S2, internal, instance=AssemblyInstanceCow1, generate
  3,  51,   3
*Elset, elset=_m_Surf-Master_S2, internal, instance=AssemblyInstanceCow2, generate
  3,  51,   3
*Elset, elset=_m_Surf-Master_S2, internal, instance=AssemblyInstanceCow4, generate
  3,  51,   3
*Elset, elset=_m_Surf-Master_S2, internal, instance=AssemblyInstanceCow5, generate
  3,  51,   3
*Elset, elset=_m_Surf-Master_S2, internal, instance=AssemblyInstanceCow3, generate
  3,  51,   3
*Surface, type=ELEMENT, name=m_Surf-Master
_m_Surf-Master_S4, S4
_m_Surf-Master_S2, S2
*Elset, elset=_m_Surf-Slave_S2, internal, instance=AssemblyInstance-Con1, generate
  3,  60,   3
*Elset, elset=_m_Surf-Slave_S2, internal, instance=AssemblyInstanceIns1, generate
  3,  60,   3
*Elset, elset=_m_Surf-Slave_S2, internal, instance=AssemblyInstanceCon3, generate
  3,  60,   3
*Elset, elset=_m_Surf-Slave_S2, internal, instance=AssemblyInstanceIns3, generate
  1,  20,   1
*Elset, elset=_m_Surf-Slave_S2, internal, instance=AssemblyInstanceCon5, generate
  3,  60,   3
*Elset, elset=_m_Surf-Slave_S2, internal, instance=AssemblyInstanceIns5, generate
  1,  20,   1
*Elset, elset=_m_Surf-Slave_S2, internal, instance=AssemblyInstanceCon2, generate
  3,  60,   3
*Elset, elset=_m_Surf-Slave_S2, internal, instance=AssemblyInstanceIns2, generate
  3,  60,   3
*Elset, elset=_m_Surf-Slave_S2, internal, instance=AssemblyInstanceCon4, generate
  3,  60,   3
*Elset, elset=_m_Surf-Slave_S2, internal, instance=AssemblyInstanceIns4, generate
  1,  20,   1
*Elset, elset=_m_Surf-Slave_S4, internal, instance=AssemblyInstanceIns1, generate
  1,  58,   3
*Elset, elset=_m_Surf-Slave_S4, internal, instance=AssemblyInstanceIns3, generate
  1,  20,   1
*Elset, elset=_m_Surf-Slave_S4, internal, instance=AssemblyInstanceIns5, generate
  1,  20,   1
*Elset, elset=_m_Surf-Slave_S4, internal, instance=AssemblyInstanceIns2, generate
  1,  58,   3
*Elset, elset=_m_Surf-Slave_S4, internal, instance=AssemblyInstanceIns4, generate
  1,  20,   1
*Surface, type=ELEMENT, name=m_Surf-Slave
_m_Surf-Slave_S2, S2
_m_Surf-Slave_S4, S4
*End Assembly
** 
** MATERIALS
** 
*Material, name=Material-Con
*Density
1.,
*Elastic
 5e+11, 0.35
*Material, name=Material-Cow
*Density
1.,
*Elastic
 4.5e+11, 0.3
*Material, name=Material-Ins
*Density
1.,
*Elastic
 4e+11, 0.4
** 
** INTERACTION PROPERTIES
** 
*Surface Interaction, name=IntProp-1
1.,
*Friction, slip tolerance=0.005
 0.9,
*Surface Behavior, pressure-overclosure=HARD
** 
** BOUNDARY CONDITIONS
** 
** Name: BC-1 Type: Displacement/Rotation
*Boundary
Set-Bc, 2, 2
** 
** INTERACTIONS
** 
** Interaction: Int-1
*Contact Pair, interaction=IntProp-1, type=SURFACE TO SURFACE
m_Surf-Slave, m_Surf-Master
** ----------------------------------------------------------------
** 
** STEP: Step-1-BodyForce
** 
*Step, name=Step-1-BodyForce, nlgeom=NO
Description-Step-1-Body-Force
*Static
1., 1., 1e-05, 1.
** 
** LOADS
** 
** Name: Load-1-BodyForce   Type: Body force Using Field: AnalyticalField-1-BodyForce
*Dload
AssemblyInstance-Con1.1, BR, 1.57783e+09
AssemblyInstance-Con1.2, BR, 1.53599e+09
AssemblyInstance-Con1.3, BR, 1.49415e+09
AssemblyInstance-Con1.4, BR, 1.57783e+09
AssemblyInstance-Con1.5, BR, 1.53599e+09
AssemblyInstance-Con1.6, BR, 1.49415e+09
AssemblyInstance-Con1.7, BR, 1.57783e+09
AssemblyInstance-Con1.8, BR, 1.53599e+09
AssemblyInstance-Con1.9, BR, 1.49415e+09
AssemblyInstance-Con1.10, BR, 1.57783e+09
AssemblyInstance-Con1.11, BR, 1.53599e+09
AssemblyInstance-Con1.12, BR, 1.49415e+09
AssemblyInstance-Con1.13, BR, 1.57783e+09
AssemblyInstance-Con1.14, BR, 1.53599e+09
AssemblyInstance-Con1.15, BR, 1.49415e+09
AssemblyInstance-Con1.16, BR, 1.57783e+09
AssemblyInstance-Con1.17, BR, 1.53599e+09
AssemblyInstance-Con1.18, BR, 1.49415e+09
AssemblyInstance-Con1.19, BR, 1.57783e+09
AssemblyInstance-Con1.20, BR, 1.53599e+09
** ... 40 like lines cut
AssemblyInstanceCow1.1, BR, 1.43307e+09
AssemblyInstanceCow1.2, BR, 1.3528e+09
AssemblyInstanceCow1.3, BR, 1.27252e+09
AssemblyInstanceCow1.4, BR, 1.43307e+09
AssemblyInstanceCow1.5, BR, 1.3528e+09
AssemblyInstanceCow1.6, BR, 1.27252e+09
AssemblyInstanceCow1.7, BR, 1.43307e+09
AssemblyInstanceCow1.8, BR, 1.3528e+09
AssemblyInstanceCow1.9, BR, 1.27252e+09
AssemblyInstanceCow1.10, BR, 1.43307e+09
AssemblyInstanceCow1.11, BR, 1.3528e+09
AssemblyInstanceCow1.12, BR, 1.27252e+09
AssemblyInstanceCow1.13, BR, 1.43307e+09
AssemblyInstanceCow1.14, BR, 1.3528e+09
AssemblyInstanceCow1.15, BR, 1.27252e+09
AssemblyInstanceCow1.16, BR, 1.43307e+09
AssemblyInstanceCow1.17, BR, 1.3528e+09
AssemblyInstanceCow1.18, BR, 1.27252e+09
AssemblyInstanceCow1.19, BR, 1.43307e+09
AssemblyInstanceCow1.20, BR, 1.3528e+09
** ... 31 like lines cut
AssemblyInstanceIns1.1, BR, 1.23066e+09
AssemblyInstanceIns1.2, BR, 1.22716e+09
AssemblyInstanceIns1.3, BR, 1.22367e+09
AssemblyInstanceIns1.4, BR, 1.23066e+09
AssemblyInstanceIns1.5, BR, 1.22716e+09
AssemblyInstanceIns1.6, BR, 1.22367e+09
AssemblyInstanceIns1.7, BR, 1.23066e+09
AssemblyInstanceIns1.8, BR, 1.22716e+09
AssemblyInstanceIns1.9, BR, 1.22367e+09
AssemblyInstanceIns1.10, BR, 1.23066e+09
AssemblyInstanceIns1.11, BR, 1.22716e+09
AssemblyInstanceIns1.12, BR, 1.22367e+09
AssemblyInstanceIns1.13, BR, 1.23066e+09
AssemblyInstanceIns1.14, BR, 1.22716e+09
AssemblyInstanceIns1.15, BR, 1.22367e+09
AssemblyInstanceIns1.16, BR, 1.23066e+09
AssemblyInstanceIns1.17, BR, 1.22716e+09
AssemblyInstanceIns1.18, BR, 1.22367e+09
AssemblyInstanceIns1.19, BR, 1.23066e+09
AssemblyInstanceIns1.20, BR, 1.22716e+09
** ... 40 like lines cut
AssemblyInstanceCow2.1, BR, 1.0562e+09
AssemblyInstanceCow2.2, BR, 9.75954e+08
AssemblyInstanceCow2.3, BR, 8.95682e+08
AssemblyInstanceCow2.4, BR, 1.0562e+09
AssemblyInstanceCow2.5, BR, 9.75954e+08
AssemblyInstanceCow2.6, BR, 8.95682e+08
AssemblyInstanceCow2.7, BR, 1.0562e+09
AssemblyInstanceCow2.8, BR, 9.75954e+08
AssemblyInstanceCow2.9, BR, 8.95682e+08
AssemblyInstanceCow2.10, BR, 1.0562e+09
AssemblyInstanceCow2.11, BR, 9.75954e+08
AssemblyInstanceCow2.12, BR, 8.95682e+08
AssemblyInstanceCow2.13, BR, 1.0562e+09
AssemblyInstanceCow2.14, BR, 9.75954e+08
AssemblyInstanceCow2.15, BR, 8.95682e+08
AssemblyInstanceCow2.16, BR, 1.0562e+09
AssemblyInstanceCow2.17, BR, 9.75954e+08
AssemblyInstanceCow2.18, BR, 8.95682e+08
AssemblyInstanceCow2.19, BR, 1.0562e+09
AssemblyInstanceCow2.20, BR, 9.75954e+08
** ... 31 like lines cut
AssemblyInstanceIns3.1, BR, 4.73447e+08
AssemblyInstanceIns3.2, BR, 4.73447e+08
AssemblyInstanceIns3.3, BR, 4.73447e+08
AssemblyInstanceIns3.4, BR, 4.73447e+08
AssemblyInstanceIns3.5, BR, 4.73447e+08
AssemblyInstanceIns3.6, BR, 4.73447e+08
AssemblyInstanceIns3.7, BR, 4.73447e+08
AssemblyInstanceIns3.8, BR, 4.73447e+08
AssemblyInstanceIns3.9, BR, 4.73447e+08
AssemblyInstanceIns3.10, BR, 4.73447e+08
AssemblyInstanceIns3.11, BR, 4.73447e+08
AssemblyInstanceIns3.12, BR, 4.73447e+08
AssemblyInstanceIns3.13, BR, 4.73447e+08
AssemblyInstanceIns3.14, BR, 4.73447e+08
AssemblyInstanceIns3.15, BR, 4.73447e+08
AssemblyInstanceIns3.16, BR, 4.73447e+08
AssemblyInstanceIns3.17, BR, 4.73447e+08
AssemblyInstanceIns3.18, BR, 4.73447e+08
AssemblyInstanceIns3.19, BR, 4.73447e+08
AssemblyInstanceIns3.20, BR, 4.73447e+08
AssemblyInstanceCon5.1, BR, 7.04305e+07
AssemblyInstanceCon5.2, BR, 2.85939e+07
AssemblyInstanceCon5.3, BR, -1.33363e+07
AssemblyInstanceCon5.4, BR, 7.04305e+07
AssemblyInstanceCon5.5, BR, 2.85939e+07
AssemblyInstanceCon5.6, BR, -1.33363e+07
AssemblyInstanceCon5.7, BR, 7.04305e+07
AssemblyInstanceCon5.8, BR, 2.85939e+07
AssemblyInstanceCon5.9, BR, -1.33363e+07
AssemblyInstanceCon5.10, BR, 7.04305e+07
AssemblyInstanceCon5.11, BR, 2.85939e+07
AssemblyInstanceCon5.12, BR, -1.33363e+07
AssemblyInstanceCon5.13, BR, 7.04305e+07
AssemblyInstanceCon5.14, BR, 2.85939e+07
AssemblyInstanceCon5.15, BR, -1.33363e+07
AssemblyInstanceCon5.16, BR, 7.04305e+07
AssemblyInstanceCon5.17, BR, 2.85939e+07
AssemblyInstanceCon5.18, BR, -1.33363e+07
AssemblyInstanceCon5.19, BR, 7.04305e+07
AssemblyInstanceCon5.20, BR, 2.85939e+07
** ... 100 like lines cut
AssemblyInstanceCow4.1, BR, 3.02451e+08
AssemblyInstanceCow4.2, BR, 2.22209e+08
AssemblyInstanceCow4.3, BR, 1.41968e+08
AssemblyInstanceCow4.4, BR, 3.02451e+08
AssemblyInstanceCow4.5, BR, 2.22209e+08
AssemblyInstanceCow4.6, BR, 1.41968e+08
AssemblyInstanceCow4.7, BR, 3.02451e+08
AssemblyInstanceCow4.8, BR, 2.22209e+08
AssemblyInstanceCow4.9, BR, 1.41968e+08
AssemblyInstanceCow4.10, BR, 3.02451e+08
AssemblyInstanceCow4.11, BR, 2.22209e+08
AssemblyInstanceCow4.12, BR, 1.41968e+08
AssemblyInstanceCow4.13, BR, 3.02451e+08
AssemblyInstanceCow4.14, BR, 2.22209e+08
AssemblyInstanceCow4.15, BR, 1.41968e+08
AssemblyInstanceCow4.16, BR, 3.02451e+08
AssemblyInstanceCow4.17, BR, 2.22209e+08
AssemblyInstanceCow4.18, BR, 1.41968e+08
AssemblyInstanceCow4.19, BR, 3.02451e+08
AssemblyInstanceCow4.20, BR, 2.22209e+08
** ... 31 like lines cut
AssemblyInstanceIns5.1, BR, -2.80267e+08
AssemblyInstanceIns5.2, BR, -2.80267e+08
AssemblyInstanceIns5.3, BR, -2.80267e+08
AssemblyInstanceIns5.4, BR, -2.80267e+08
AssemblyInstanceIns5.5, BR, -2.80267e+08
AssemblyInstanceIns5.6, BR, -2.80267e+08
AssemblyInstanceIns5.7, BR, -2.80267e+08
AssemblyInstanceIns5.8, BR, -2.80267e+08
AssemblyInstanceIns5.9, BR, -2.80267e+08
AssemblyInstanceIns5.10, BR, -2.80267e+08
AssemblyInstanceIns5.11, BR, -2.80267e+08
AssemblyInstanceIns5.12, BR, -2.80267e+08
AssemblyInstanceIns5.13, BR, -2.80267e+08
AssemblyInstanceIns5.14, BR, -2.80267e+08
AssemblyInstanceIns5.15, BR, -2.80267e+08
AssemblyInstanceIns5.16, BR, -2.80267e+08
AssemblyInstanceIns5.17, BR, -2.80267e+08
AssemblyInstanceIns5.18, BR, -2.80267e+08
AssemblyInstanceIns5.19, BR, -2.80267e+08
AssemblyInstanceIns5.20, BR, -2.80267e+08
AssemblyInstanceCon2.1, BR, 1.20102e+09
AssemblyInstanceCon2.2, BR, 1.15912e+09
AssemblyInstanceCon2.3, BR, 1.11728e+09
AssemblyInstanceCon2.4, BR, 1.20102e+09
AssemblyInstanceCon2.5, BR, 1.15912e+09
AssemblyInstanceCon2.6, BR, 1.11728e+09
AssemblyInstanceCon2.7, BR, 1.20102e+09
AssemblyInstanceCon2.8, BR, 1.15912e+09
AssemblyInstanceCon2.9, BR, 1.11728e+09
AssemblyInstanceCon2.10, BR, 1.20102e+09
AssemblyInstanceCon2.11, BR, 1.15912e+09
AssemblyInstanceCon2.12, BR, 1.11728e+09
AssemblyInstanceCon2.13, BR, 1.20102e+09
AssemblyInstanceCon2.14, BR, 1.15912e+09
AssemblyInstanceCon2.15, BR, 1.11728e+09
AssemblyInstanceCon2.16, BR, 1.20102e+09
AssemblyInstanceCon2.17, BR, 1.15912e+09
AssemblyInstanceCon2.18, BR, 1.11728e+09
AssemblyInstanceCon2.19, BR, 1.20102e+09
AssemblyInstanceCon2.20, BR, 1.15912e+09
** ... 40 like lines cut
AssemblyInstanceIns2.1, BR, 8.53814e+08
AssemblyInstanceIns2.2, BR, 8.5032e+08
AssemblyInstanceIns2.3, BR, 8.46826e+08
AssemblyInstanceIns2.4, BR, 8.53814e+08
AssemblyInstanceIns2.5, BR, 8.5032e+08
AssemblyInstanceIns2.6, BR, 8.46826e+08
AssemblyInstanceIns2.7, BR, 8.53814e+08
AssemblyInstanceIns2.8, BR, 8.5032e+08
AssemblyInstanceIns2.9, BR, 8.46826e+08
AssemblyInstanceIns2.10, BR, 8.53814e+08
AssemblyInstanceIns2.11, BR, 8.5032e+08
AssemblyInstanceIns2.12, BR, 8.46826e+08
AssemblyInstanceIns2.13, BR, 8.53814e+08
AssemblyInstanceIns2.14, BR, 8.5032e+08
AssemblyInstanceIns2.15, BR, 8.46826e+08
AssemblyInstanceIns2.16, BR, 8.53814e+08
AssemblyInstanceIns2.17, BR, 8.5032e+08
AssemblyInstanceIns2.18, BR, 8.46826e+08
AssemblyInstanceIns2.19, BR, 8.53814e+08
AssemblyInstanceIns2.20, BR, 8.5032e+08
** ... 40 like lines cut
AssemblyInstanceCon4.1, BR, 4.47272e+08
AssemblyInstanceCon4.2, BR, 4.05404e+08
AssemblyInstanceCon4.3, BR, 3.63536e+08
AssemblyInstanceCon4.4, BR, 4.47272e+08
AssemblyInstanceCon4.5, BR, 4.05404e+08
AssemblyInstanceCon4.6, BR, 3.63536e+08
AssemblyInstanceCon4.7, BR, 4.47272e+08
AssemblyInstanceCon4.8, BR, 4.05404e+08
AssemblyInstanceCon4.9, BR, 3.63536e+08
AssemblyInstanceCon4.10, BR, 4.47272e+08
AssemblyInstanceCon4.11, BR, 4.05404e+08
AssemblyInstanceCon4.12, BR, 3.63536e+08
AssemblyInstanceCon4.13, BR, 4.47272e+08
AssemblyInstanceCon4.14, BR, 4.05404e+08
AssemblyInstanceCon4.15, BR, 3.63536e+08
AssemblyInstanceCon4.16, BR, 4.47272e+08
AssemblyInstanceCon4.17, BR, 4.05404e+08
AssemblyInstanceCon4.18, BR, 3.63536e+08
AssemblyInstanceCon4.19, BR, 4.47272e+08
AssemblyInstanceCon4.20, BR, 4.05404e+08
** ... 40 like lines cut
AssemblyInstanceCow5.1, BR, -7.43909e+07
AssemblyInstanceCow5.2, BR, -1.54664e+08
AssemblyInstanceCow5.3, BR, -2.34905e+08
AssemblyInstanceCow5.4, BR, -7.43909e+07
AssemblyInstanceCow5.5, BR, -1.54664e+08
AssemblyInstanceCow5.6, BR, -2.34905e+08
AssemblyInstanceCow5.7, BR, -7.43909e+07
AssemblyInstanceCow5.8, BR, -1.54664e+08
AssemblyInstanceCow5.9, BR, -2.34905e+08
AssemblyInstanceCow5.10, BR, -7.43909e+07
AssemblyInstanceCow5.11, BR, -1.54664e+08
AssemblyInstanceCow5.12, BR, -2.34905e+08
AssemblyInstanceCow5.13, BR, -7.43909e+07
AssemblyInstanceCow5.14, BR, -1.54664e+08
AssemblyInstanceCow5.15, BR, -2.34905e+08
AssemblyInstanceCow5.16, BR, -7.43909e+07
AssemblyInstanceCow5.17, BR, -1.54664e+08
AssemblyInstanceCow5.18, BR, -2.34905e+08
AssemblyInstanceCow5.19, BR, -7.43909e+07
AssemblyInstanceCow5.20, BR, -1.54664e+08
** ... 82 like lines cut
AssemblyInstanceIns4.1, BR, 9.66057e+07
AssemblyInstanceIns4.2, BR, 9.66057e+07
AssemblyInstanceIns4.3, BR, 9.66057e+07
AssemblyInstanceIns4.4, BR, 9.66057e+07
AssemblyInstanceIns4.5, BR, 9.66057e+07
AssemblyInstanceIns4.6, BR, 9.66057e+07
AssemblyInstanceIns4.7, BR, 9.66057e+07
AssemblyInstanceIns4.8, BR, 9.66057e+07
AssemblyInstanceIns4.9, BR, 9.66057e+07
AssemblyInstanceIns4.10, BR, 9.66057e+07
AssemblyInstanceIns4.11, BR, 9.66057e+07
AssemblyInstanceIns4.12, BR, 9.66057e+07
AssemblyInstanceIns4.13, BR, 9.66057e+07
AssemblyInstanceIns4.14, BR, 9.66057e+07
AssemblyInstanceIns4.15, BR, 9.66057e+07
AssemblyInstanceIns4.16, BR, 9.66057e+07
AssemblyInstanceIns4.17, BR, 9.66057e+07
AssemblyInstanceIns4.18, BR, 9.66057e+07
AssemblyInstanceIns4.19, BR, 9.66057e+07
AssemblyInstanceIns4.20, BR, 9.66057e+07
** 
** OUTPUT REQUESTS
** 
*Restart, write, frequency=0
** 
** FIELD OUTPUT: F-Output-1
** 
*Output, field, variable=PRESELECT
** 
** HISTORY OUTPUT: H-Output-1
** 
*Output, history, variable=PRESELECT
*End Step
